<?xml version="1.0" encoding="UTF-8"?>

<!-- generated on 09/27/20 12:43:48 by Eclipse SUMO duarouter Version 1.7.0
<configuration xmlns:xsi="http://www.w3.org/2001/XMLSchema-instance" xsi:noNamespaceSchemaLocation="http://sumo.dlr.de/xsd/duarouterConfiguration.xsd">

    <input>
        <net-file value="C:\Users\narwayaayush\Sumo\2020-09-27-12-43-01\osm.net.xml"/>
        <route-files value="C:\Users\narwayaayush\Sumo\2020-09-27-12-43-01\osm.bus.trips.xml"/>
    </input>

    <output>
        <output-file value="C:\Users\narwayaayush\Sumo\2020-09-27-12-43-01\osm.bus.trips.xml.tmp"/>
        <write-trips value="true"/>
    </output>

    <time>
        <begin value="0"/>
        <end value="3600"/>
    </time>

    <report>
        <no-warnings value="true"/>
        <ignore-errors value="true"/>
        <no-step-log value="true"/>
    </report>

</configuration>
-->

<routes xmlns:xsi="http://www.w3.org/2001/XMLSchema-instance" xsi:noNamespaceSchemaLocation="http://sumo.dlr.de/xsd/routes_file.xsd">
    <vType id="bus_bus" vClass="bus"/>
    <trip id="bus0" type="bus_bus" depart="0.00" departLane="best" from="24993933#1" to="-131505631#0"/>
    <trip id="bus1" type="bus_bus" depart="8.11" departLane="best" from="340498982#8" to="310176513#6"/>
    <trip id="bus2" type="bus_bus" depart="16.23" departLane="best" departSpeed="max" from="4773029#0" to="-19002363#3"/>
    <trip id="bus3" type="bus_bus" depart="24.34" departLane="best" departSpeed="max" from="-310176513#9" to="202817674#3"/>
    <trip id="bus4" type="bus_bus" depart="32.46" departLane="best" from="-128396190#3" to="-35578576#1"/>
    <trip id="bus5" type="bus_bus" depart="40.57" departLane="best" from="28251222#1" to="23851930"/>
    <trip id="bus6" type="bus_bus" depart="48.68" departLane="best" departSpeed="max" from="-310176513#9" to="24913267#3"/>
    <trip id="bus7" type="bus_bus" depart="56.80" departLane="best" from="454285423#3" to="-111833185#0"/>
    <trip id="bus8" type="bus_bus" depart="64.91" departLane="best" departSpeed="max" from="454285423#0" to="31313667#3"/>
    <trip id="bus9" type="bus_bus" depart="73.03" departLane="best" from="-560370523" to="-24993933#0"/>
    <trip id="bus10" type="bus_bus" depart="81.14" departLane="best" from="-19002363#6" to="-195105328#0"/>
    <trip id="bus11" type="bus_bus" depart="89.25" departLane="best" from="4611696#4" to="24993933#1"/>
    <trip id="bus12" type="bus_bus" depart="97.37" departLane="best" departSpeed="max" from="454285423#0" to="344594961"/>
    <trip id="bus14" type="bus_bus" depart="113.60" departLane="best" from="4610472#1" to="276701303"/>
    <trip id="bus15" type="bus_bus" depart="121.71" departLane="best" departSpeed="max" from="4612970#0" to="24243107#1"/>
    <trip id="bus16" type="bus_bus" depart="129.82" departLane="best" from="310177222#1" to="-158023913#2"/>
    <trip id="bus17" type="bus_bus" depart="137.94" departLane="best" departSpeed="max" from="-312176585#2" to="-6227658#3"/>
    <trip id="bus18" type="bus_bus" depart="146.05" departLane="best" from="-176043794" to="-454285423#0"/>
    <trip id="bus19" type="bus_bus" depart="154.17" departLane="best" departSpeed="max" from="-195104960#2" to="-492340367#0"/>
    <trip id="bus20" type="bus_bus" depart="162.28" departLane="best" departSpeed="max" from="24993933#0" to="155186522"/>
    <trip id="bus21" type="bus_bus" depart="170.39" departLane="best" from="-24243101" to="342968607#1"/>
    <trip id="bus22" type="bus_bus" depart="178.51" departLane="best" from="831694400" to="292429063#0"/>
    <trip id="bus23" type="bus_bus" depart="186.62" departLane="best" from="23121445#2" to="310177222#2"/>
    <trip id="bus24" type="bus_bus" depart="194.74" departLane="best" departSpeed="max" from="4611696#0" to="437325054#0"/>
    <trip id="bus25" type="bus_bus" depart="202.85" departLane="best" departSpeed="max" from="-312176585#2" to="-136571494#2"/>
    <trip id="bus26" type="bus_bus" depart="210.96" departLane="best" from="-461526153" to="-4613306#0"/>
    <trip id="bus27" type="bus_bus" depart="219.08" departLane="best" from="-310176513#1" to="66071370"/>
    <trip id="bus28" type="bus_bus" depart="227.19" departLane="best" from="46140376#1" to="100405009#2"/>
    <trip id="bus29" type="bus_bus" depart="235.30" departLane="best" from="534588621#0" to="194962398#1"/>
    <trip id="bus30" type="bus_bus" depart="243.42" departLane="best" from="-437325054#1" to="-4610524"/>
    <trip id="bus31" type="bus_bus" depart="251.53" departLane="best" from="234463928#1" to="-4612970#0"/>
    <trip id="bus32" type="bus_bus" depart="259.65" departLane="best" departSpeed="max" from="23851922" to="493008124"/>
    <trip id="bus33" type="bus_bus" depart="267.76" departLane="best" from="-19002363#3" to="-15977422#0"/>
    <trip id="bus34" type="bus_bus" depart="275.87" departLane="best" from="-195397561#0" to="289966097"/>
    <trip id="bus35" type="bus_bus" depart="283.99" departLane="best" from="437325047#5" to="173197451#0"/>
    <trip id="bus36" type="bus_bus" depart="292.10" departLane="best" from="-168942727#2" to="164039095#1"/>
    <trip id="bus37" type="bus_bus" depart="300.22" departLane="best" from="819027709#0" to="4613295"/>
    <trip id="bus38" type="bus_bus" depart="308.33" departLane="best" from="-111833186#1" to="340498976#9"/>
    <trip id="bus39" type="bus_bus" depart="316.44" departLane="best" departSpeed="max" from="-4396823" to="292429063#1"/>
    <trip id="bus40" type="bus_bus" depart="324.56" departLane="best" from="-195397561#2" to="183415643"/>
    <trip id="bus41" type="bus_bus" depart="332.67" departLane="best" from="168937986#1" to="694626562"/>
    <trip id="bus42" type="bus_bus" depart="340.79" departLane="best" from="46140376#1" to="-4612970#0"/>
    <trip id="bus43" type="bus_bus" depart="348.90" departLane="best" from="188914559" to="-310177222#0"/>
    <trip id="bus44" type="bus_bus" depart="357.01" departLane="best" from="51167934#2" to="465376240#0"/>
    <trip id="bus45" type="bus_bus" depart="365.13" departLane="best" departSpeed="max" from="-4611706#1" to="292429062#3"/>
    <trip id="bus46" type="bus_bus" depart="373.24" departLane="best" from="24243107#2" to="-24993933#0"/>
    <trip id="bus47" type="bus_bus" depart="381.36" departLane="best" departSpeed="max" from="389705411#0" to="23813206#2"/>
    <trip id="bus48" type="bus_bus" depart="389.47" departLane="best" departSpeed="max" from="43159545" to="23809670#2"/>
    <trip id="bus50" type="bus_bus" depart="405.70" departLane="best" from="-4612974#0" to="-168940071#0"/>
    <trip id="bus51" type="bus_bus" depart="413.81" departLane="best" from="461526152#0" to="66311464#1"/>
    <trip id="bus52" type="bus_bus" depart="421.93" departLane="best" departSpeed="max" from="-176043807#3" to="19801644#2"/>
    <trip id="bus53" type="bus_bus" depart="430.04" departLane="best" departSpeed="max" from="-168943640#2" to="42103020#0"/>
    <trip id="bus54" type="bus_bus" depart="438.15" departLane="best" departSpeed="max" from="389705411#0" to="-23813206#0"/>
    <trip id="bus55" type="bus_bus" depart="446.27" departLane="best" from="169195795#9" to="24241762#1"/>
    <trip id="bus56" type="bus_bus" depart="454.38" departLane="best" from="202156994#0" to="344594961"/>
    <trip id="bus57" type="bus_bus" depart="462.50" departLane="best" from="-292429062#2" to="-84960597#0"/>
    <trip id="bus58" type="bus_bus" depart="470.61" departLane="best" from="83517336#4" to="301241681#4"/>
    <trip id="bus59" type="bus_bus" depart="478.72" departLane="best" from="156364566#1" to="23121445#3"/>
    <trip id="bus60" type="bus_bus" depart="486.84" departLane="best" from="-202156991#1" to="-437325048#1"/>
    <trip id="bus61" type="bus_bus" depart="494.95" departLane="best" from="-534588621#1" to="24913267#0"/>
    <trip id="bus62" type="bus_bus" depart="503.07" departLane="best" departSpeed="max" from="-312176585#2" to="-43231842#3"/>
    <trip id="bus63" type="bus_bus" depart="511.18" departLane="best" departSpeed="max" from="-168943640#2" to="29177662#1"/>
    <trip id="bus64" type="bus_bus" depart="519.29" departLane="best" departSpeed="max" from="-312176585#2" to="51167934#4"/>
    <trip id="bus65" type="bus_bus" depart="527.41" departLane="best" from="4612969#1" to="-169999355#2"/>
    <trip id="bus66" type="bus_bus" depart="535.52" departLane="best" from="-339201177#2" to="309147331#1"/>
    <trip id="bus67" type="bus_bus" depart="543.64" departLane="best" from="-310176513#6" to="-24242882#0"/>
    <trip id="bus68" type="bus_bus" depart="551.75" departLane="best" from="606078065" to="24243052#4"/>
    <trip id="bus69" type="bus_bus" depart="559.86" departLane="best" from="169195795#5" to="454285423#3"/>
    <trip id="bus70" type="bus_bus" depart="567.98" departLane="best" from="-194962375#1" to="176043807#1"/>
    <trip id="bus71" type="bus_bus" depart="576.09" departLane="best" from="136571494#5" to="195104960#1"/>
    <trip id="bus72" type="bus_bus" depart="584.21" departLane="best" from="340498976#5" to="310176513#1"/>
    <trip id="bus73" type="bus_bus" depart="592.32" departLane="best" departSpeed="max" from="830728708#0" to="-195397541#0"/>
    <trip id="bus75" type="bus_bus" depart="608.55" departLane="best" departSpeed="max" from="4612970#0" to="-4611696#0"/>
    <trip id="bus77" type="bus_bus" depart="624.77" departLane="best" from="136571494#3" to="-51167934#1"/>
    <trip id="bus78" type="bus_bus" depart="632.89" departLane="best" from="-36892597#2" to="560370523"/>
    <trip id="bus79" type="bus_bus" depart="641.00" departLane="best" from="158023913#2" to="4613295"/>
    <trip id="bus80" type="bus_bus" depart="649.12" departLane="best" from="22972195#2" to="-165415464#1"/>
    <trip id="bus81" type="bus_bus" depart="657.23" departLane="best" from="84960597#1" to="4611726"/>
    <trip id="bus82" type="bus_bus" depart="665.34" departLane="best" from="7917219#3" to="60333309#0"/>
    <trip id="bus83" type="bus_bus" depart="673.46" departLane="best" from="4611696#5" to="-292429062#0"/>
    <trip id="bus85" type="bus_bus" depart="689.69" departLane="best" from="120675240#3" to="-168940071#1"/>
    <trip id="bus86" type="bus_bus" depart="697.80" departLane="best" from="168937986#3" to="173197451#1"/>
    <trip id="bus87" type="bus_bus" depart="705.91" departLane="best" from="728838409#0" to="83517339"/>
    <trip id="bus88" type="bus_bus" depart="714.03" departLane="best" departSpeed="max" from="-24241762#2" to="-743631784"/>
    <trip id="bus89" type="bus_bus" depart="722.14" departLane="best" from="7917219#3" to="243854725#3"/>
    <trip id="bus90" type="bus_bus" depart="730.26" departLane="best" from="-168937986#5" to="246044848"/>
    <trip id="bus91" type="bus_bus" depart="738.37" departLane="best" from="-24241790#2" to="751595928#0"/>
    <trip id="bus92" type="bus_bus" depart="746.48" departLane="best" from="24242892#2" to="310176513#3"/>
    <trip id="bus93" type="bus_bus" depart="754.60" departLane="best" from="-330840125#1" to="-234463931#0"/>
    <trip id="bus94" type="bus_bus" depart="762.71" departLane="best" from="24242882#3" to="276701303"/>
    <trip id="bus95" type="bus_bus" depart="770.83" departLane="best" from="136571494#0" to="246044848"/>
    <trip id="bus96" type="bus_bus" depart="778.94" departLane="best" from="195401006" to="61584187#4"/>
    <trip id="bus98" type="bus_bus" depart="795.17" departLane="best" from="301733776" to="-751595929#2"/>
    <trip id="bus99" type="bus_bus" depart="803.28" departLane="best" from="84960597#0" to="83517339"/>
    <trip id="bus100" type="bus_bus" depart="811.40" departLane="best" from="-437325054#1" to="61584187#3"/>
    <trip id="bus101" type="bus_bus" depart="819.51" departLane="best" from="465376240#0" to="47016365#1"/>
    <trip id="bus102" type="bus_bus" depart="827.62" departLane="best" from="-82658674#2" to="-24993933#4"/>
    <trip id="bus103" type="bus_bus" depart="835.74" departLane="best" departSpeed="max" from="243854725#0" to="830728708#3"/>
    <trip id="bus104" type="bus_bus" depart="843.85" departLane="best" departSpeed="max" from="288726033#0" to="-111833185#0"/>
    <trip id="bus106" type="bus_bus" depart="860.08" departLane="best" from="292429062#2" to="628330890"/>
    <trip id="bus107" type="bus_bus" depart="868.19" departLane="best" from="-195397541#0" to="24241790#1"/>
    <trip id="bus108" type="bus_bus" depart="876.31" departLane="best" from="-4402228" to="24993933#2"/>
    <trip id="bus109" type="bus_bus" depart="884.42" departLane="best" from="327518240#0" to="-370359204#0"/>
    <trip id="bus110" type="bus_bus" depart="892.54" departLane="best" departSpeed="max" from="24993933#0" to="-4612970#0"/>
    <trip id="bus111" type="bus_bus" depart="900.65" departLane="best" from="176043806#1" to="51167934#4"/>
    <trip id="bus112" type="bus_bus" depart="908.76" departLane="best" departSpeed="max" from="4611696#0" to="-194962375#1"/>
    <trip id="bus113" type="bus_bus" depart="916.88" departLane="best" from="136571494#5" to="-4773029#1"/>
    <trip id="bus115" type="bus_bus" depart="933.11" departLane="best" departSpeed="max" from="24993933#0" to="-4612970#0"/>
    <trip id="bus116" type="bus_bus" depart="941.22" departLane="best" from="344594962" to="24241762#1"/>
    <trip id="bus117" type="bus_bus" depart="949.33" departLane="best" from="-169999355#2" to="4773465#3"/>
    <trip id="bus118" type="bus_bus" depart="957.45" departLane="best" departSpeed="max" from="4790799" to="23851930"/>
    <trip id="bus120" type="bus_bus" depart="973.68" departLane="best" from="-4612981#1" to="493008124"/>
    <trip id="bus121" type="bus_bus" depart="981.79" departLane="best" from="437325054#0" to="4613295"/>
    <trip id="bus122" type="bus_bus" depart="989.90" departLane="best" from="478432725" to="-43156728#0"/>
    <trip id="bus123" type="bus_bus" depart="998.02" departLane="best" from="-36892597#2" to="-195397561#4"/>
    <trip id="bus124" type="bus_bus" depart="1006.13" departLane="best" departSpeed="max" from="43159545" to="478432725"/>
    <trip id="bus125" type="bus_bus" depart="1014.24" departLane="best" departSpeed="max" from="122820534#0" to="276701303"/>
    <trip id="bus127" type="bus_bus" depart="1030.47" departLane="best" from="454285423#4" to="4773465#1"/>
    <trip id="bus128" type="bus_bus" depart="1038.59" departLane="best" from="-128396190#1" to="35269774#1"/>
    <trip id="bus129" type="bus_bus" depart="1046.70" departLane="best" departSpeed="max" from="-51167934#4" to="606078065"/>
    <trip id="bus130" type="bus_bus" depart="1054.81" departLane="best" from="4403559#2" to="4613308#2"/>
    <trip id="bus131" type="bus_bus" depart="1062.93" departLane="best" from="454285423#4" to="-4613306#0"/>
    <trip id="bus133" type="bus_bus" depart="1079.16" departLane="best" from="-310177222#1" to="4610476#1"/>
    <trip id="bus134" type="bus_bus" depart="1087.27" departLane="best" from="168940071#2" to="-82658671#0"/>
    <trip id="bus135" type="bus_bus" depart="1095.38" departLane="best" departSpeed="max" from="-493008124" to="4613308#2"/>
    <trip id="bus136" type="bus_bus" depart="1103.50" departLane="best" from="251884680" to="168943640#0"/>
    <trip id="bus137" type="bus_bus" depart="1111.61" departLane="best" departSpeed="max" from="830728708#0" to="23813206#0"/>
    <trip id="bus138" type="bus_bus" depart="1119.73" departLane="best" from="-195397541#1" to="176043807#1"/>
    <trip id="bus139" type="bus_bus" depart="1127.84" departLane="best" from="340498976#2" to="100405009#1"/>
    <trip id="bus140" type="bus_bus" depart="1135.95" departLane="best" departSpeed="max" from="111833185#0" to="24243107#0"/>
    <trip id="bus141" type="bus_bus" depart="1144.07" departLane="best" from="-43231842#0" to="33301683"/>
    <trip id="bus143" type="bus_bus" depart="1160.30" departLane="best" from="330840125#0" to="-751595929#2"/>
    <trip id="bus144" type="bus_bus" depart="1168.41" departLane="best" departSpeed="max" from="-4613293" to="169195795#6"/>
    <trip id="bus145" type="bus_bus" depart="1176.52" departLane="best" from="6227658#1" to="310176513#6"/>
    <trip id="bus146" type="bus_bus" depart="1184.64" departLane="best" from="-4612965" to="23852053#1"/>
    <trip id="bus147" type="bus_bus" depart="1192.75" departLane="best" departSpeed="max" from="153698402" to="24540242#1"/>
    <trip id="bus148" type="bus_bus" depart="1200.87" departLane="best" departSpeed="max" from="288726033#0" to="195104960#1"/>
    <trip id="bus149" type="bus_bus" depart="1208.98" departLane="best" from="158023913#0" to="-43159545"/>
    <trip id="bus150" type="bus_bus" depart="1217.09" departLane="best" from="169195795#6" to="51167934#1"/>
    <trip id="bus151" type="bus_bus" depart="1225.21" departLane="best" from="437325054#0" to="-292429062#3"/>
    <trip id="bus152" type="bus_bus" depart="1233.32" departLane="best" departSpeed="max" from="-176043807#3" to="23121445#1"/>
    <trip id="bus153" type="bus_bus" depart="1241.44" departLane="best" from="24992424#3" to="112128419#2"/>
    <trip id="bus154" type="bus_bus" depart="1249.55" departLane="best" from="305093247#0" to="-437325048#1"/>
    <trip id="bus155" type="bus_bus" depart="1257.66" departLane="best" from="-35578576#0" to="195401017#5"/>
    <trip id="bus156" type="bus_bus" depart="1265.78" departLane="best" from="4611698#1" to="-173197451#0"/>
    <trip id="bus157" type="bus_bus" depart="1273.89" departLane="best" departSpeed="max" from="131505631#0" to="289967595#0"/>
    <trip id="bus159" type="bus_bus" depart="1290.12" departLane="best" departSpeed="max" from="187111590#0" to="-4610472#2"/>
    <trip id="bus160" type="bus_bus" depart="1298.23" departLane="best" departSpeed="max" from="288726033#0" to="-111833185#0"/>
    <trip id="bus161" type="bus_bus" depart="1306.35" departLane="best" from="35578576#1" to="437325047#2"/>
    <trip id="bus162" type="bus_bus" depart="1314.46" departLane="best" from="-195105328#1" to="173197451#6"/>
    <trip id="bus163" type="bus_bus" depart="1322.58" departLane="best" from="-24913267#2" to="728838409#1"/>
    <trip id="bus164" type="bus_bus" depart="1330.69" departLane="best" from="195105328#1" to="-165415464#1"/>
    <trip id="bus165" type="bus_bus" depart="1338.80" departLane="best" from="-36892597#1" to="4612973#1"/>
    <trip id="bus166" type="bus_bus" depart="1346.92" departLane="best" from="168937986#4" to="4610355#2"/>
    <trip id="bus167" type="bus_bus" depart="1355.03" departLane="best" from="301167584#0" to="830728708#4"/>
    <trip id="bus168" type="bus_bus" depart="1363.15" departLane="best" from="24242892#2" to="68647306#3"/>
    <trip id="bus169" type="bus_bus" depart="1371.26" departLane="best" departSpeed="max" from="4773029#0" to="25294729#1"/>
    <trip id="bus170" type="bus_bus" depart="1379.37" departLane="best" from="330840125#0" to="202817674#0"/>
    <trip id="bus171" type="bus_bus" depart="1387.49" departLane="best" from="4610472#2" to="23852053#1"/>
    <trip id="bus172" type="bus_bus" depart="1395.60" departLane="best" from="4773465#2" to="35578559"/>
    <trip id="bus173" type="bus_bus" depart="1403.71" departLane="best" from="169195795#7" to="-4612969#1"/>
    <trip id="bus174" type="bus_bus" depart="1411.83" departLane="best" departSpeed="max" from="389705411#0" to="234463931#1"/>
    <trip id="bus175" type="bus_bus" depart="1419.94" departLane="best" departSpeed="max" from="24914141#0" to="-4773029#0"/>
    <trip id="bus176" type="bus_bus" depart="1428.06" departLane="best" from="-4402037#1" to="109819340#3"/>
    <trip id="bus177" type="bus_bus" depart="1436.17" departLane="best" from="202156995#0" to="-24243101"/>
    <trip id="bus179" type="bus_bus" depart="1452.40" departLane="best" from="310177222#3" to="-168942727#2"/>
    <trip id="bus180" type="bus_bus" depart="1460.51" departLane="best" from="122820534#1" to="23851930"/>
    <trip id="bus181" type="bus_bus" depart="1468.63" departLane="best" from="131505631#1" to="-43156728#0"/>
    <trip id="bus182" type="bus_bus" depart="1476.74" departLane="best" from="136571494#1" to="51167934#4"/>
    <trip id="bus184" type="bus_bus" depart="1492.97" departLane="best" from="4612968#0" to="43231842#1"/>
    <trip id="bus187" type="bus_bus" depart="1517.31" departLane="best" from="4612961#1" to="694626562"/>
    <trip id="bus188" type="bus_bus" depart="1525.42" departLane="best" from="136571494#0" to="36892597#0"/>
    <trip id="bus189" type="bus_bus" depart="1533.54" departLane="best" departSpeed="max" from="-310176513#9" to="-43231842#2"/>
    <trip id="bus190" type="bus_bus" depart="1541.65" departLane="best" from="156364553#1" to="-132600840#1"/>
    <trip id="bus191" type="bus_bus" depart="1549.77" departLane="best" departSpeed="max" from="-51167934#4" to="310176513#9"/>
    <trip id="bus192" type="bus_bus" depart="1557.88" departLane="best" from="168943639#4" to="-23809670#3"/>
    <trip id="bus193" type="bus_bus" depart="1565.99" departLane="best" from="24913519#1" to="-131505631#1"/>
    <trip id="bus196" type="bus_bus" depart="1590.34" departLane="best" from="-23121445#5" to="195104956#1"/>
    <trip id="bus197" type="bus_bus" depart="1598.45" departLane="best" from="-310176513#2" to="111251382#3"/>
    <trip id="bus198" type="bus_bus" depart="1606.56" departLane="best" from="38208961" to="164039095#1"/>
    <trip id="bus199" type="bus_bus" depart="1614.68" departLane="best" from="-11483007#2" to="23813206#2"/>
    <trip id="bus200" type="bus_bus" depart="1622.79" departLane="best" from="84960597#1" to="128396190#3"/>
    <trip id="bus201" type="bus_bus" depart="1630.91" departLane="best" from="28251222#1" to="4403559#2"/>
    <trip id="bus203" type="bus_bus" depart="1647.13" departLane="best" from="-120675240#2" to="-24993933#0"/>
    <trip id="bus204" type="bus_bus" depart="1655.25" departLane="best" from="-202817674#2" to="309147331#1"/>
    <trip id="bus205" type="bus_bus" depart="1663.36" departLane="best" from="234463931#3" to="-43231842#1"/>
    <trip id="bus206" type="bus_bus" depart="1671.48" departLane="best" departSpeed="max" from="310177222#0" to="43231842#3"/>
    <trip id="bus207" type="bus_bus" depart="1679.59" departLane="best" departSpeed="max" from="-24242892#7" to="25294728"/>
    <trip id="bus208" type="bus_bus" depart="1687.70" departLane="best" from="4610362#0" to="756306892"/>
    <trip id="bus209" type="bus_bus" depart="1695.82" departLane="best" departSpeed="max" from="-4613293" to="310176513#6"/>
    <trip id="bus210" type="bus_bus" depart="1703.93" departLane="best" from="313195075" to="-173197451#1"/>
    <trip id="bus211" type="bus_bus" depart="1712.05" departLane="best" departSpeed="max" from="-195104960#2" to="437325047#5"/>
    <trip id="bus212" type="bus_bus" depart="1720.16" departLane="best" from="4611706#0" to="24990040"/>
    <trip id="bus213" type="bus_bus" depart="1728.27" departLane="best" from="-202156991#1" to="82658674#3"/>
    <trip id="bus214" type="bus_bus" depart="1736.39" departLane="best" departSpeed="max" from="43159545" to="122820534#1"/>
    <trip id="bus215" type="bus_bus" depart="1744.50" departLane="best" from="153698394#1" to="156364570#2"/>
    <trip id="bus216" type="bus_bus" depart="1752.62" departLane="best" from="-195105328#0" to="751595928#0"/>
    <trip id="bus217" type="bus_bus" depart="1760.73" departLane="best" departSpeed="max" from="24993933#0" to="4611696#5"/>
    <trip id="bus218" type="bus_bus" depart="1768.84" departLane="best" from="31112516" to="183415643"/>
    <trip id="bus219" type="bus_bus" depart="1776.96" departLane="best" from="340498982#3" to="77348147"/>
    <trip id="bus220" type="bus_bus" depart="1785.07" departLane="best" departSpeed="max" from="-4396823" to="4610362#6"/>
    <trip id="bus221" type="bus_bus" depart="1793.18" departLane="best" from="202156991#1" to="19801618#1"/>
    <trip id="bus222" type="bus_bus" depart="1801.30" departLane="best" departSpeed="max" from="-4396823" to="4613292#0"/>
    <trip id="bus223" type="bus_bus" depart="1809.41" departLane="best" from="4610472#2" to="-19002363#3"/>
    <trip id="bus225" type="bus_bus" depart="1825.64" departLane="best" from="4611706#0" to="-310177222#3"/>
    <trip id="bus226" type="bus_bus" depart="1833.75" departLane="best" from="-310176513#3" to="4610355#1"/>
    <trip id="bus227" type="bus_bus" depart="1841.87" departLane="best" from="-560370523" to="4773029#1"/>
    <trip id="bus228" type="bus_bus" depart="1849.98" departLane="best" departSpeed="max" from="310177222#0" to="-4773029#0"/>
    <trip id="bus229" type="bus_bus" depart="1858.10" departLane="best" departSpeed="max" from="-176043807#3" to="340498976#9"/>
    <trip id="bus230" type="bus_bus" depart="1866.21" departLane="best" from="176043806#1" to="4067932#1"/>
    <trip id="bus231" type="bus_bus" depart="1874.32" departLane="best" from="183415643" to="4588217#2"/>
    <trip id="bus232" type="bus_bus" depart="1882.44" departLane="best" from="-19002363#6" to="-437325047#0"/>
    <trip id="bus233" type="bus_bus" depart="1890.55" departLane="best" departSpeed="max" from="196850609" to="173197451#6"/>
    <trip id="bus234" type="bus_bus" depart="1898.67" departLane="best" departSpeed="max" from="310177222#0" to="-474362271"/>
    <trip id="bus237" type="bus_bus" depart="1923.01" departLane="best" departSpeed="max" from="-25294729#1" to="-43159545"/>
    <trip id="bus239" type="bus_bus" depart="1939.24" departLane="best" from="82658671#1" to="234463931#4"/>
    <trip id="bus242" type="bus_bus" depart="1963.58" departLane="best" from="19801533" to="-4773029#0"/>
    <trip id="bus243" type="bus_bus" depart="1971.69" departLane="best" from="82649618" to="24241790#1"/>
    <trip id="bus244" type="bus_bus" depart="1979.81" departLane="best" from="310176513#6" to="-23809670#2"/>
    <trip id="bus245" type="bus_bus" depart="1987.92" departLane="best" from="4612974#0" to="19801644#3"/>
    <trip id="bus247" type="bus_bus" depart="2004.15" departLane="best" from="169195795#0" to="188386313#2"/>
    <trip id="bus248" type="bus_bus" depart="2012.26" departLane="best" departSpeed="max" from="-25294729#1" to="-165415464#1"/>
    <trip id="bus249" type="bus_bus" depart="2020.38" departLane="best" from="4610362#4" to="168943640#0"/>
    <trip id="bus250" type="bus_bus" depart="2028.49" departLane="best" from="-169660686#0" to="289966845"/>
    <trip id="bus251" type="bus_bus" depart="2036.60" departLane="best" from="-168937986#1" to="-24990040"/>
    <trip id="bus253" type="bus_bus" depart="2052.83" departLane="best" from="83517336#0" to="-234463928#0"/>
    <trip id="bus254" type="bus_bus" depart="2060.95" departLane="best" departSpeed="max" from="389705411#0" to="251884680"/>
    <trip id="bus255" type="bus_bus" depart="2069.06" departLane="best" from="437325047#2" to="-437325051#0"/>
    <trip id="bus256" type="bus_bus" depart="2077.17" departLane="best" from="195401006" to="190447768#1"/>
    <trip id="bus257" type="bus_bus" depart="2085.29" departLane="best" from="158023913#2" to="4613295"/>
    <trip id="bus258" type="bus_bus" depart="2093.40" departLane="best" from="831694400" to="-82658671#0"/>
    <trip id="bus259" type="bus_bus" depart="2101.52" departLane="best" from="24913304#1" to="25294729#1"/>
    <trip id="bus260" type="bus_bus" depart="2109.63" departLane="best" departSpeed="max" from="-29290632" to="-43156728#0"/>
    <trip id="bus261" type="bus_bus" depart="2117.74" departLane="best" from="-24243107#1" to="-173197451#0"/>
    <trip id="bus263" type="bus_bus" depart="2133.97" departLane="best" from="24242882#2" to="-62363401"/>
    <trip id="bus264" type="bus_bus" depart="2142.09" departLane="best" from="-31313667#1" to="33301683"/>
    <trip id="bus265" type="bus_bus" depart="2150.20" departLane="best" departSpeed="max" from="310177222#0" to="194962375#1"/>
    <trip id="bus267" type="bus_bus" depart="2166.43" departLane="best" from="292429062#0" to="61584187#3"/>
    <trip id="bus268" type="bus_bus" depart="2174.54" departLane="best" from="139877314#1" to="23851930"/>
    <trip id="bus269" type="bus_bus" depart="2182.65" departLane="best" from="28016312#1" to="523630409"/>
    <trip id="bus270" type="bus_bus" depart="2190.77" departLane="best" from="4610374" to="-173197451#0"/>
    <trip id="bus271" type="bus_bus" depart="2198.88" departLane="best" from="-24242892#4" to="-82658674#1"/>
    <trip id="bus272" type="bus_bus" depart="2207.00" departLane="best" from="-4610472#0" to="-234463931#5"/>
    <trip id="bus273" type="bus_bus" depart="2215.11" departLane="best" from="6227658#3" to="202156995#1"/>
    <trip id="bus274" type="bus_bus" depart="2223.22" departLane="best" departSpeed="max" from="187111590#0" to="-176043794"/>
    <trip id="bus275" type="bus_bus" depart="2231.34" departLane="best" from="-156364553#0" to="176043807#1"/>
    <trip id="bus276" type="bus_bus" depart="2239.45" departLane="best" departSpeed="max" from="-4790825#2" to="-4611696#0"/>
    <trip id="bus277" type="bus_bus" depart="2247.57" departLane="best" from="-19002363#3" to="751595929#1"/>
    <trip id="bus278" type="bus_bus" depart="2255.68" departLane="best" from="68647306#4" to="84960597#1"/>
    <trip id="bus279" type="bus_bus" depart="2263.79" departLane="best" from="301733776" to="-461526153"/>
    <trip id="bus281" type="bus_bus" depart="2280.02" departLane="best" from="169195795#1" to="301733776"/>
    <trip id="bus282" type="bus_bus" depart="2288.14" departLane="best" from="54048862#0" to="-310177222#3"/>
    <trip id="bus283" type="bus_bus" depart="2296.25" departLane="best" departSpeed="max" from="23851922" to="29177662#1"/>
    <trip id="bus284" type="bus_bus" depart="2304.36" departLane="best" departSpeed="max" from="187111590#0" to="-194962375#0"/>