<?xml version="1.0" encoding="UTF-8"?>

<!-- generated on 09/27/20 12:43:55 by Eclipse SUMO duarouter Version 1.7.0
<configuration xmlns:xsi="http://www.w3.org/2001/XMLSchema-instance" xsi:noNamespaceSchemaLocation="http://sumo.dlr.de/xsd/duarouterConfiguration.xsd">

    <input>
        <net-file value="C:\Users\narwayaayush\Sumo\2020-09-27-12-43-01\osm.net.xml"/>
        <route-files value="C:\Users\narwayaayush\Sumo\2020-09-27-12-43-01\osm.bicycle.trips.xml"/>
    </input>

    <output>
        <output-file value="C:\Users\narwayaayush\Sumo\2020-09-27-12-43-01\osm.bicycle.trips.xml.tmp"/>
        <write-trips value="true"/>
    </output>

    <time>
        <begin value="0"/>
        <end value="3600"/>
    </time>

    <report>
        <no-warnings value="true"/>
        <ignore-errors value="true"/>
        <no-step-log value="true"/>
    </report>

</configuration>
-->

<routes xmlns:xsi="http://www.w3.org/2001/XMLSchema-instance" xsi:noNamespaceSchemaLocation="http://sumo.dlr.de/xsd/routes_file.xsd">
    <vType id="bike_bicycle" vClass="bicycle"/>
    <trip id="bike0" type="bike_bicycle" depart="0.00" departLane="best" from="289967595#0" to="-133885745#0"/>
    <trip id="bike1" type="bike_bicycle" depart="4.53" departLane="best" from="-4610472#0" to="-454285423#3"/>
    <trip id="bike2" type="bike_bicycle" depart="9.05" departLane="best" departSpeed="max" from="388702039#0" to="330840125#1"/>
    <trip id="bike4" type="bike_bicycle" depart="18.10" departLane="best" from="132460631#0" to="-136571494#3"/>
    <trip id="bike5" type="bike_bicycle" depart="22.63" departLane="best" from="-326116286#2" to="195411604"/>
    <trip id="bike6" type="bike_bicycle" depart="27.15" departLane="best" from="-132460631#0" to="-377215961#2"/>
    <trip id="bike7" type="bike_bicycle" depart="31.68" departLane="best" from="305093247#2" to="23809670#3"/>
    <trip id="bike8" type="bike_bicycle" depart="36.20" departLane="best" from="-330840125#1" to="24993933#1"/>
    <trip id="bike9" type="bike_bicycle" depart="40.73" departLane="best" from="4610527" to="-111833185#0"/>
    <trip id="bike10" type="bike_bicycle" depart="45.25" departLane="best" from="4610476#1" to="344594961"/>
    <trip id="bike11" type="bike_bicycle" depart="49.78" departLane="best" departSpeed="max" from="-589906053#1" to="-292429062#3"/>
    <trip id="bike12" type="bike_bicycle" depart="54.31" departLane="best" departSpeed="max" from="718101395" to="104991251"/>
    <trip id="bike13" type="bike_bicycle" depart="58.83" departLane="best" from="-19002363#3" to="-195397561#0"/>
    <trip id="bike14" type="bike_bicycle" depart="63.36" departLane="best" departSpeed="max" from="465376243#0" to="28258879#1"/>
    <trip id="bike16" type="bike_bicycle" depart="72.41" departLane="best" from="195401017#5" to="803471192#1"/>
    <trip id="bike17" type="bike_bicycle" depart="76.93" departLane="best" from="-82658674#1" to="23852053#0"/>
    <trip id="bike18" type="bike_bicycle" depart="81.46" departLane="best" departSpeed="max" from="4612970#0" to="29177662#1"/>
    <trip id="bike19" type="bike_bicycle" depart="85.98" departLane="best" from="4840977#1" to="246044843#1"/>
    <trip id="bike20" type="bike_bicycle" depart="90.51" departLane="best" from="340498976#7" to="-163870539#0"/>
    <trip id="bike21" type="bike_bicycle" depart="95.03" departLane="best" from="-339201185" to="-576310033#1"/>
    <trip id="bike23" type="bike_bicycle" depart="104.09" departLane="best" from="-194177692#1" to="-561049078"/>
    <trip id="bike24" type="bike_bicycle" depart="108.61" departLane="best" departSpeed="max" from="288726033#0" to="128396190#3"/>
    <trip id="bike25" type="bike_bicycle" depart="113.14" departLane="best" departSpeed="max" from="-792782325" to="-43231842#1"/>
    <trip id="bike26" type="bike_bicycle" depart="117.66" departLane="best" from="-454285423#4" to="68647306#2"/>
    <trip id="bike27" type="bike_bicycle" depart="122.19" departLane="best" from="301241681#4" to="285825375"/>
    <trip id="bike30" type="bike_bicycle" depart="135.76" departLane="best" from="831694400" to="30721662#1"/>
    <trip id="bike31" type="bike_bicycle" depart="140.29" departLane="best" from="225400578#1" to="339201177#5"/>
    <trip id="bike32" type="bike_bicycle" depart="144.81" departLane="best" from="461526152#0" to="4588217#2"/>
    <trip id="bike33" type="bike_bicycle" depart="149.34" departLane="best" from="-344595607#0" to="-137085411#0"/>
    <trip id="bike34" type="bike_bicycle" depart="153.87" departLane="best" from="-52348720#1" to="-52348718#0"/>
    <trip id="bike35" type="bike_bicycle" depart="158.39" departLane="best" from="-31313667#1" to="687804455#1"/>
    <trip id="bike36" type="bike_bicycle" depart="162.92" departLane="best" departSpeed="max" from="52348719#0" to="-796446835#2"/>
    <trip id="bike37" type="bike_bicycle" depart="167.44" departLane="best" from="30721660#2" to="137085411#1"/>
    <trip id="bike38" type="bike_bicycle" depart="171.97" departLane="best" from="576310033#0" to="188046016#0"/>
    <trip id="bike39" type="bike_bicycle" depart="176.49" departLane="best" from="-454285423#0" to="-4613306#0"/>
    <trip id="bike40" type="bike_bicycle" depart="181.02" departLane="best" from="23013165#2" to="-510625575"/>
    <trip id="bike41" type="bike_bicycle" depart="185.54" departLane="best" from="24242882#0" to="566764344"/>
    <trip id="bike42" type="bike_bicycle" depart="190.07" departLane="best" from="110769140" to="-4402228"/>
    <trip id="bike43" type="bike_bicycle" depart="194.59" departLane="best" from="840860363#1" to="19801644#2"/>
    <trip id="bike44" type="bike_bicycle" depart="199.12" departLane="best" from="-19002363#1" to="-165415464#1"/>
    <trip id="bike45" type="bike_bicycle" depart="203.65" departLane="best" from="-195089288#1" to="301241483#3"/>
    <trip id="bike46" type="bike_bicycle" depart="208.17" departLane="best" from="4588217#3" to="168937986#4"/>
    <trip id="bike47" type="bike_bicycle" depart="212.70" departLane="best" departSpeed="max" from="-164039095#1" to="133885750#4"/>
    <trip id="bike49" type="bike_bicycle" depart="221.75" departLane="best" from="796446835#1" to="51912365#1"/>
    <trip id="bike50" type="bike_bicycle" depart="226.27" departLane="best" from="-111833185#1" to="377215961#2"/>
    <trip id="bike51" type="bike_bicycle" depart="230.80" departLane="best" from="313195075" to="23121445#5"/>
    <trip id="bike52" type="bike_bicycle" depart="235.32" departLane="best" from="-454285423#3" to="30721662#2"/>
    <trip id="bike53" type="bike_bicycle" depart="239.85" departLane="best" departSpeed="max" from="-195089288#3" to="169195795#4"/>
    <trip id="bike54" type="bike_bicycle" depart="244.37" departLane="best" from="156364570#2" to="72260322"/>
    <trip id="bike55" type="bike_bicycle" depart="248.90" departLane="best" departSpeed="max" from="52348719#0" to="-51167934#1"/>
    <trip id="bike56" type="bike_bicycle" depart="253.43" departLane="best" from="19002357#1" to="-326116286#2"/>
    <trip id="bike57" type="bike_bicycle" depart="257.95" departLane="best" from="574993713#1" to="54048862#3"/>
    <trip id="bike58" type="bike_bicycle" depart="262.48" departLane="best" departSpeed="max" from="-4790825#2" to="30721660#4"/>
    <trip id="bike59" type="bike_bicycle" depart="267.00" departLane="best" from="24913519#2" to="-285825378#1"/>
    <trip id="bike60" type="bike_bicycle" depart="271.53" departLane="best" from="410310755#3" to="234463931#3"/>
    <trip id="bike61" type="bike_bicycle" depart="276.05" departLane="best" from="437325051#1" to="22972219#0"/>
    <trip id="bike62" type="bike_bicycle" depart="280.58" departLane="best" from="-102408133#0" to="-84960597#1"/>
    <trip id="bike64" type="bike_bicycle" depart="289.63" departLane="best" from="52348720#1" to="465376240#0"/>
    <trip id="bike65" type="bike_bicycle" depart="294.15" departLane="best" departSpeed="max" from="-51167934#4" to="-168943639#2"/>
    <trip id="bike66" type="bike_bicycle" depart="298.68" departLane="best" from="52348720#0" to="705182551"/>
    <trip id="bike67" type="bike_bicycle" depart="303.21" departLane="best" from="-176043794" to="194962398#0"/>
    <trip id="bike68" type="bike_bicycle" depart="307.73" departLane="best" from="-168940071#2" to="437325051#1"/>
    <trip id="bike69" type="bike_bicycle" depart="312.26" departLane="best" from="427637455" to="-24242892#3"/>
    <trip id="bike70" type="bike_bicycle" depart="316.78" departLane="best" from="169195795#1" to="23813206#2"/>
    <trip id="bike71" type="bike_bicycle" depart="321.31" departLane="best" from="-454285423#0" to="541295974"/>
    <trip id="bike72" type="bike_bicycle" depart="325.83" departLane="best" from="132600840#0" to="-437325047#0"/>
    <trip id="bike74" type="bike_bicycle" depart="334.88" departLane="best" from="-310177222#1" to="-7917219#2"/>
    <trip id="bike75" type="bike_bicycle" depart="339.41" departLane="best" from="83517339" to="310176513#7"/>
    <trip id="bike76" type="bike_bicycle" depart="343.93" departLane="best" from="136571494#4" to="202157002#2"/>
    <trip id="bike77" type="bike_bicycle" depart="348.46" departLane="best" from="-195397561#4" to="-4588217#0"/>
    <trip id="bike78" type="bike_bicycle" depart="352.98" departLane="best" from="-576310033#0" to="24992428"/>
    <trip id="bike79" type="bike_bicycle" depart="357.51" departLane="best" from="-34848160#0" to="-449982384#0"/>
    <trip id="bike80" type="bike_bicycle" depart="362.04" departLane="best" from="-168942727#1" to="305093247#0"/>
    <trip id="bike81" type="bike_bicycle" depart="366.56" departLane="best" from="-344595607#0" to="576310033#0"/>
    <trip id="bike82" type="bike_bicycle" depart="371.09" departLane="best" departSpeed="max" from="4790799" to="-183649398"/>
    <trip id="bike83" type="bike_bicycle" depart="375.61" departLane="best" from="-375716658" to="315245296#1"/>
    <trip id="bike84" type="bike_bicycle" depart="380.14" departLane="best" from="-315245296#1" to="-24243107#2"/>
    <trip id="bike85" type="bike_bicycle" depart="384.66" departLane="best" departSpeed="max" from="627355688" to="24243107#1"/>
    <trip id="bike86" type="bike_bicycle" depart="389.19" departLane="best" from="168943639#4" to="4610362#1"/>
    <trip id="bike87" type="bike_bicycle" depart="393.71" departLane="best" from="4610479#0" to="-34848160#1"/>
    <trip id="bike88" type="bike_bicycle" depart="398.24" departLane="best" departSpeed="max" from="-194073678" to="168943639#5"/>
    <trip id="bike89" type="bike_bicycle" depart="402.76" departLane="best" from="132600840#1" to="19002403#1"/>
    <trip id="bike90" type="bike_bicycle" depart="407.29" departLane="best" from="372616653" to="32508516#0"/>
    <trip id="bike91" type="bike_bicycle" depart="411.82" departLane="best" from="82659290#0" to="-195397561#4"/>
    <trip id="bike92" type="bike_bicycle" depart="416.34" departLane="best" from="111833185#1" to="109819340#1"/>
    <trip id="bike93" type="bike_bicycle" depart="420.87" departLane="best" from="4840977#1" to="-4615566"/>
    <trip id="bike94" type="bike_bicycle" depart="425.39" departLane="best" departSpeed="max" from="-29290632" to="172283311"/>
    <trip id="bike95" type="bike_bicycle" depart="429.92" departLane="best" from="132460631#0" to="-561049082"/>
    <trip id="bike96" type="bike_bicycle" depart="434.44" departLane="best" from="-437325047#0" to="616804220#1"/>
    <trip id="bike97" type="bike_bicycle" depart="438.97" departLane="best" from="139877314#1" to="51912365#1"/>
    <trip id="bike98" type="bike_bicycle" depart="443.49" departLane="best" from="202157031#2" to="-168937986#5"/>
    <trip id="bike99" type="bike_bicycle" depart="448.02" departLane="best" from="84960597#0" to="47016365#1"/>
    <trip id="bike100" type="bike_bicycle" depart="452.54" departLane="best" from="7917219#2" to="6228081"/>
    <trip id="bike101" type="bike_bicycle" depart="457.07" departLane="best" from="465376254" to="-310313888#1"/>
    <trip id="bike102" type="bike_bicycle" depart="461.60" departLane="best" from="171826985#3" to="-437325047#5"/>
    <trip id="bike103" type="bike_bicycle" depart="466.12" departLane="best" from="111251382#3" to="-168943639#4"/>
    <trip id="bike104" type="bike_bicycle" depart="470.65" departLane="best" from="-82658674#1" to="82659290#0"/>
    <trip id="bike105" type="bike_bicycle" depart="475.17" departLane="best" from="-454285423#0" to="4610362#0"/>
    <trip id="bike106" type="bike_bicycle" depart="479.70" departLane="best" from="158023913#2" to="168937986#5"/>
    <trip id="bike107" type="bike_bicycle" depart="484.22" departLane="best" departSpeed="max" from="718101395" to="83517339"/>
    <trip id="bike108" type="bike_bicycle" depart="488.75" departLane="best" from="202817674#4" to="374734389#1"/>
    <trip id="bike109" type="bike_bicycle" depart="493.27" departLane="best" from="-24242882#2" to="-628330888"/>
    <trip id="bike110" type="bike_bicycle" depart="497.80" departLane="best" from="7917219#2" to="246052428"/>
    <trip id="bike111" type="bike_bicycle" depart="502.32" departLane="best" from="19801644#2" to="410310755#3"/>
    <trip id="bike112" type="bike_bicycle" depart="506.85" departLane="best" from="-158023913#0" to="24913519#2"/>
    <trip id="bike113" type="bike_bicycle" depart="511.38" departLane="best" from="19002363#3" to="493008124"/>
    <trip id="bike114" type="bike_bicycle" depart="515.90" departLane="best" from="-24242892#4" to="751602168"/>
    <trip id="bike116" type="bike_bicycle" depart="524.95" departLane="best" from="24243092#0" to="327518240#1"/>
    <trip id="bike117" type="bike_bicycle" depart="529.48" departLane="best" from="-36892597#2" to="-23809670#1"/>
    <trip id="bike119" type="bike_bicycle" depart="538.53" departLane="best" from="24243056" to="292429062#1"/>
    <trip id="bike120" type="bike_bicycle" depart="543.05" departLane="best" departSpeed="max" from="131505631#0" to="24913519#1"/>
    <trip id="bike121" type="bike_bicycle" depart="547.58" departLane="best" from="194963395#0" to="66071379#1"/>
    <trip id="bike122" type="bike_bicycle" depart="552.10" departLane="best" from="-310313888#3" to="370359204#2"/>
    <trip id="bike123" type="bike_bicycle" depart="556.63" departLane="best" from="-375716659" to="137085411#1"/>
    <trip id="bike124" type="bike_bicycle" depart="561.16" departLane="best" from="310177222#3" to="-645533910"/>
    <trip id="bike125" type="bike_bicycle" depart="565.68" departLane="best" from="-534588621#0" to="43164692"/>
    <trip id="bike126" type="bike_bicycle" depart="570.21" departLane="best" from="-168942727#3" to="188044903#0"/>
    <trip id="bike127" type="bike_bicycle" depart="574.73" departLane="best" from="84960595" to="836424814"/>
    <trip id="bike128" type="bike_bicycle" depart="579.26" departLane="best" from="-168943639#1" to="-437325047#3"/>
    <trip id="bike129" type="bike_bicycle" depart="583.78" departLane="best" from="-454285423#0" to="66071370"/>
    <trip id="bike130" type="bike_bicycle" depart="588.31" departLane="best" from="534588621#0" to="55741054"/>
    <trip id="bike131" type="bike_bicycle" depart="592.83" departLane="best" from="-7917219#3" to="-301241480#0"/>
    <trip id="bike132" type="bike_bicycle" depart="597.36" departLane="best" from="4612981#1" to="35269774#0"/>
    <trip id="bike134" type="bike_bicycle" depart="606.41" departLane="best" from="30721660#0" to="-111833186#0"/>
    <trip id="bike135" type="bike_bicycle" depart="610.94" departLane="best" from="4611696#5" to="-645533910"/>
    <trip id="bike136" type="bike_bicycle" depart="615.46" departLane="best" from="309479676" to="68647306#5"/>
    <trip id="bike137" type="bike_bicycle" depart="619.99" departLane="best" from="-225400578#1" to="-234463931#0"/>
    <trip id="bike138" type="bike_bicycle" depart="624.51" departLane="best" from="-194962375#2" to="23852053#1"/>
    <trip id="bike139" type="bike_bicycle" depart="629.04" departLane="best" departSpeed="max" from="-460115469" to="28258879#2"/>
    <trip id="bike140" type="bike_bicycle" depart="633.56" departLane="best" from="34848160#2" to="-410310755#3"/>
    <trip id="bike141" type="bike_bicycle" depart="638.09" departLane="best" from="286653195" to="-51167934#3"/>
    <trip id="bike142" type="bike_bicycle" depart="642.61" departLane="best" from="173197451#4" to="576310033#0"/>
    <trip id="bike143" type="bike_bicycle" depart="647.14" departLane="best" from="465376240#0" to="-195104956#0"/>
    <trip id="bike144" type="bike_bicycle" depart="651.66" departLane="best" from="132600840#1" to="-558867476"/>
    <trip id="bike145" type="bike_bicycle" depart="656.19" departLane="best" departSpeed="max" from="-105742454" to="454285423#1"/>
    <trip id="bike146" type="bike_bicycle" depart="660.72" departLane="best" from="289966097" to="-510625575"/>
    <trip id="bike147" type="bike_bicycle" depart="665.24" departLane="best" from="388702039#4" to="23851930"/>
    <trip id="bike148" type="bike_bicycle" depart="669.77" departLane="best" departSpeed="max" from="133885746#0" to="-111833186#2"/>
    <trip id="bike149" type="bike_bicycle" depart="674.29" departLane="best" from="-168943639#5" to="561049080"/>
    <trip id="bike150" type="bike_bicycle" depart="678.82" departLane="best" departSpeed="max" from="566155004" to="23809670#3"/>
    <trip id="bike151" type="bike_bicycle" depart="683.34" departLane="best" from="4613292#0" to="24913304#2"/>
    <trip id="bike152" type="bike_bicycle" depart="687.87" departLane="best" departSpeed="max" from="-23813206#2" to="-24242892#2"/>
    <trip id="bike154" type="bike_bicycle" depart="696.92" departLane="best" from="4610362#0" to="51912365#1"/>
    <trip id="bike155" type="bike_bicycle" depart="701.44" departLane="best" departSpeed="max" from="566154996" to="-43231842#1"/>
    <trip id="bike156" type="bike_bicycle" depart="705.97" departLane="best" from="-437325047#0" to="-202157003#1"/>
    <trip id="bike157" type="bike_bicycle" depart="710.50" departLane="best" from="4402037#0" to="566154986"/>
    <trip id="bike158" type="bike_bicycle" depart="715.02" departLane="best" from="112128418#1" to="292429062#2"/>
    <trip id="bike159" type="bike_bicycle" depart="719.55" departLane="best" from="-24242882#2" to="628330890"/>
    <trip id="bike160" type="bike_bicycle" depart="724.07" departLane="best" from="490365295#1" to="819027709#0"/>
    <trip id="bike161" type="bike_bicycle" depart="728.60" departLane="best" from="4610600" to="558867476"/>
    <trip id="bike162" type="bike_bicycle" depart="733.12" departLane="best" from="-128396190#3" to="388702041#5"/>
    <trip id="bike163" type="bike_bicycle" depart="737.65" departLane="best" from="-574993710" to="628330903#1"/>
    <trip id="bike164" type="bike_bicycle" depart="742.17" departLane="best" from="4610374" to="52348720#0"/>
    <trip id="bike165" type="bike_bicycle" depart="746.70" departLane="best" from="4610600" to="-51912365#0"/>
    <trip id="bike166" type="bike_bicycle" depart="751.22" departLane="best" from="454285423#1" to="-202817674#3"/>
    <trip id="bike167" type="bike_bicycle" depart="755.75" departLane="best" from="51167934#2" to="515998817"/>
    <trip id="bike168" type="bike_bicycle" depart="760.28" departLane="best" departSpeed="max" from="-330840136" to="4612972#1"/>
    <trip id="bike169" type="bike_bicycle" depart="764.80" departLane="best" departSpeed="max" from="163870539#0" to="-711640736#2"/>
    <trip id="bike170" type="bike_bicycle" depart="769.33" departLane="best" from="4610361" to="-4610374"/>
    <trip id="bike171" type="bike_bicycle" depart="773.85" departLane="best" from="-128396190#2" to="-35578576#2"/>
    <trip id="bike172" type="bike_bicycle" depart="778.38" departLane="best" departSpeed="max" from="-566154993" to="52348720#1"/>
    <trip id="bike173" type="bike_bicycle" depart="782.90" departLane="best" from="756306892" to="-566154997"/>
    <trip id="bike174" type="bike_bicycle" depart="787.43" departLane="best" from="292429062#2" to="139877314#1"/>
    <trip id="bike175" type="bike_bicycle" depart="791.95" departLane="best" from="82658671#1" to="23121445#4"/>
    <trip id="bike176" type="bike_bicycle" depart="796.48" departLane="best" from="628330903#1" to="-234463928#0"/>
    <trip id="bike177" type="bike_bicycle" depart="801.00" departLane="best" from="796446835#0" to="-326116286#2"/>
    <trip id="bike178" type="bike_bicycle" depart="805.53" departLane="best" from="728838409#2" to="-51912365#0"/>
    <trip id="bike179" type="bike_bicycle" depart="810.06" departLane="best" departSpeed="max" from="-195089278" to="169195795#4"/>
    <trip id="bike180" type="bike_bicycle" depart="814.58" departLane="best" from="371919780#1" to="-796446835#1"/>
    <trip id="bike181" type="bike_bicycle" depart="819.11" departLane="best" from="24913267#0" to="202156991#0"/>
    <trip id="bike182" type="bike_bicycle" depart="823.63" departLane="best" from="100405009#1" to="246044843#0"/>
    <trip id="bike183" type="bike_bicycle" depart="828.16" departLane="best" from="-437325054#1" to="35578576#1"/>
    <trip id="bike184" type="bike_bicycle" depart="832.68" departLane="best" departSpeed="max" from="-104991251" to="6227658#3"/>
    <trip id="bike185" type="bike_bicycle" depart="837.21" departLane="best" from="195411604" to="374734389#2"/>
    <trip id="bike186" type="bike_bicycle" depart="841.73" departLane="best" from="388702039#5" to="316746323#1"/>
    <trip id="bike187" type="bike_bicycle" depart="846.26" departLane="best" from="-751595929#2" to="-176043806#1"/>
    <trip id="bike188" type="bike_bicycle" depart="850.78" departLane="best" from="310176513#0" to="100944802#3"/>
    <trip id="bike189" type="bike_bicycle" depart="855.31" departLane="best" from="-52348719#1" to="492340367#0"/>
    <trip id="bike190" type="bike_bicycle" depart="859.84" departLane="best" from="354528932" to="-645533910"/>
    <trip id="bike191" type="bike_bicycle" depart="864.36" departLane="best" departSpeed="max" from="-515998815" to="156364556#1"/>
    <trip id="bike192" type="bike_bicycle" depart="868.89" departLane="best" departSpeed="max" from="111833185#0" to="-6228081"/>
    <trip id="bike193" type="bike_bicycle" depart="873.41" departLane="best" from="-202157003#0" to="168937986#1"/>
    <trip id="bike194" type="bike_bicycle" depart="877.94" departLane="best" departSpeed="max" from="645533910" to="330840134#2"/>
    <trip id="bike195" type="bike_bicycle" depart="882.46" departLane="best" departSpeed="max" from="566155002" to="289966281"/>
    <trip id="bike197" type="bike_bicycle" depart="891.51" departLane="best" from="-102408133#0" to="-574993713#2"/>
    <trip id="bike198" type="bike_bicycle" depart="896.04" departLane="best" from="133885749#2" to="24913267#0"/>
    <trip id="bike199" type="bike_bicycle" depart="900.56" departLane="best" from="30721660#1" to="19002363#4"/>
    <trip id="bike200" type="bike_bicycle" depart="905.09" departLane="best" from="137630045" to="-437325047#3"/>
    <trip id="bike201" type="bike_bicycle" depart="909.62" departLane="best" from="168943639#4" to="574993713#0"/>
    <trip id="bike202" type="bike_bicycle" depart="914.14" departLane="best" from="4610362#0" to="-312176585#1"/>
    <trip id="bike203" type="bike_bicycle" depart="918.67" departLane="best" from="-173197451#4" to="202156995#1"/>
    <trip id="bike204" type="bike_bicycle" depart="923.19" departLane="best" from="285825378#1" to="104581979#1"/>
    <trip id="bike205" type="bike_bicycle" depart="927.72" departLane="best" from="4611706#0" to="43156728#2"/>
    <trip id="bike206" type="bike_bicycle" depart="932.24" departLane="best" from="310313888#1" to="-4588217#0"/>
    <trip id="bike207" type="bike_bicycle" depart="936.77" departLane="best" departSpeed="max" from="-310176513#9" to="-133885744#0"/>
    <trip id="bike208" type="bike_bicycle" depart="941.29" departLane="best" from="-427637455" to="194073678"/>
    <trip id="bike209" type="bike_bicycle" depart="945.82" departLane="best" from="465376255#2" to="-188914559"/>
    <trip id="bike210" type="bike_bicycle" depart="950.34" departLane="best" departSpeed="max" from="122820534#0" to="301241681#4"/>
    <trip id="bike211" type="bike_bicycle" depart="954.87" departLane="best" from="-310176513#1" to="340498982#9"/>
    <trip id="bike212" type="bike_bicycle" depart="959.40" departLane="best" departSpeed="max" from="183649398" to="-4612974#0"/>
    <trip id="bike213" type="bike_bicycle" depart="963.92" departLane="best" from="30721660#3" to="-111251382#3"/>
    <trip id="bike215" type="bike_bicycle" depart="972.97" departLane="best" from="-194962375#2" to="168940071#2"/>
    <trip id="bike216" type="bike_bicycle" depart="977.50" departLane="best" from="-28016312#3" to="750204886"/>
    <trip id="bike217" type="bike_bicycle" depart="982.02" departLane="best" from="194177700#1" to="-168937986#4"/>
    <trip id="bike218" type="bike_bicycle" depart="986.55" departLane="best" from="-437325047#0" to="492340367#0"/>
    <trip id="bike219" type="bike_bicycle" depart="991.07" departLane="best" from="15971197#0" to="4611693#2"/>
    <trip id="bike220" type="bike_bicycle" depart="995.60" departLane="best" from="310176513#6" to="830728708#3"/>
    <trip id="bike221" type="bike_bicycle" depart="1000.12" departLane="best" from="24243092#1" to="711640737"/>
    <trip id="bike226" type="bike_bicycle" depart="1022.75" departLane="best" from="169195795#1" to="-4840977#1"/>
    <trip id="bike227" type="bike_bicycle" depart="1027.28" departLane="best" from="-43231842#1" to="30721660#3"/>
    <trip id="bike228" type="bike_bicycle" depart="1031.80" departLane="best" from="427637455" to="202157031#3"/>
    <trip id="bike229" type="bike_bicycle" depart="1036.33" departLane="best" from="28016312#1" to="-555247157"/>
    <trip id="bike230" type="bike_bicycle" depart="1040.85" departLane="best" from="-169660686#0" to="-574993713#0"/>
    <trip id="bike231" type="bike_bicycle" depart="1045.38" departLane="best" from="-4588217#5" to="-82658674#2"/>
    <trip id="bike232" type="bike_bicycle" depart="1049.90" departLane="best" departSpeed="max" from="196850609" to="-24993933#0"/>
    <trip id="bike233" type="bike_bicycle" depart="1054.43" departLane="best" from="-34848160#1" to="340498982#4"/>
    <trip id="bike234" type="bike_bicycle" depart="1058.95" departLane="best" from="340498982#0" to="-173197451#0"/>
    <trip id="bike235" type="bike_bicycle" depart="1063.48" departLane="best" from="112128418#5" to="236092221#1"/>
    <trip id="bike236" type="bike_bicycle" depart="1068.01" departLane="best" from="122820534#1" to="-43156728#4"/>
    <trip id="bike237" type="bike_bicycle" depart="1072.53" departLane="best" departSpeed="max" from="131505631#0" to="576310031"/>
    <trip id="bike238" type="bike_bicycle" depart="1077.06" departLane="best" from="24241797#3" to="340498982#8"/>
    <trip id="bike239" type="bike_bicycle" depart="1081.58" departLane="best" from="4773465#2" to="4403559#2"/>
    <trip id="bike240" type="bike_bicycle" depart="1086.11" departLane="best" from="-82658674#4" to="-111833185#0"/>
    <trip id="bike241" type="bike_bicycle" depart="1090.63" departLane="best" departSpeed="max" from="-66071370" to="43231842#1"/>
    <trip id="bike242" type="bike_bicycle" depart="1095.16" departLane="best" from="47016368#2" to="72260322"/>
    <trip id="bike243" type="bike_bicycle" depart="1099.68" departLane="best" departSpeed="max" from="131505631#0" to="410310755#3"/>
    <trip id="bike244" type="bike_bicycle" depart="1104.21" departLane="best" from="202157002#0" to="28251222#1"/>
    <trip id="bike245" type="bike_bicycle" depart="1108.73" departLane="best" from="-330840125#1" to="-4412868"/>
    <trip id="bike246" type="bike_bicycle" depart="1113.26" departLane="best" from="136571494#1" to="-136571494#2"/>
    <trip id="bike247" type="bike_bicycle" depart="1117.79" departLane="best" departSpeed="max" from="-574993713#3" to="330840136"/>
    <trip id="bike248" type="bike_bicycle" depart="1122.31" departLane="best" from="111833186#1" to="-310177222#3"/>
    <trip id="bike249" type="bike_bicycle" depart="1126.84" departLane="best" from="168940071#2" to="-24242892#2"/>
    <trip id="bike250" type="bike_bicycle" depart="1131.36" departLane="best" departSpeed="max" from="262407304" to="-133885749#2"/>
    <trip id="bike251" type="bike_bicycle" depart="1135.89" departLane="best" from="104581979#0" to="24243052#1"/>
    <trip id="bike252" type="bike_bicycle" depart="1140.41" departLane="best" from="-132460631#0" to="309147331#0"/>
    <trip id="bike253" type="bike_bicycle" depart="1144.94" departLane="best" from="-23121445#0" to="188914559"/>
    <trip id="bike254" type="bike_bicycle" depart="1149.46" departLane="best" departSpeed="max" from="-143201761" to="133885749#3"/>
    <trip id="bike255" type="bike_bicycle" depart="1153.99" departLane="best" from="-31313667#2" to="100405009#3"/>
    <trip id="bike256" type="bike_bicycle" depart="1158.51" departLane="best" departSpeed="max" from="409506039#0" to="133885749#3"/>
    <trip id="bike258" type="bike_bicycle" depart="1167.57" departLane="best" from="-437325048#1" to="-194177692#1"/>
    <trip id="bike259" type="bike_bicycle" depart="1172.09" departLane="best" from="-11483007#2" to="234463931#3"/>
    <trip id="bike260" type="bike_bicycle" depart="1176.62" departLane="best" from="84960597#1" to="112128416"/>
    <trip id="bike261" type="bike_bicycle" depart="1181.14" departLane="best" from="305093247#2" to="4610355#1"/>
    <trip id="bike262" type="bike_bicycle" depart="1185.67" departLane="best" from="305153174" to="43231842#2"/>