<?xml version="1.0" encoding="UTF-8"?>

<!-- generated on 09/27/20 12:43:52 by Eclipse SUMO duarouter Version 1.7.0
<configuration xmlns:xsi="http://www.w3.org/2001/XMLSchema-instance" xsi:noNamespaceSchemaLocation="http://sumo.dlr.de/xsd/duarouterConfiguration.xsd">

    <input>
        <net-file value="C:\Users\narwayaayush\Sumo\2020-09-27-12-43-01\osm.net.xml"/>
        <route-files value="C:\Users\narwayaayush\Sumo\2020-09-27-12-43-01\osm.motorcycle.trips.xml"/>
    </input>

    <output>
        <output-file value="C:\Users\narwayaayush\Sumo\2020-09-27-12-43-01\osm.motorcycle.trips.xml.tmp"/>
        <write-trips value="true"/>
    </output>

    <time>
        <begin value="0"/>
        <end value="3600"/>
    </time>

    <report>
        <no-warnings value="true"/>
        <ignore-errors value="true"/>
        <no-step-log value="true"/>
    </report>

</configuration>
-->

<routes xmlns:xsi="http://www.w3.org/2001/XMLSchema-instance" xsi:noNamespaceSchemaLocation="http://sumo.dlr.de/xsd/routes_file.xsd">
    <vType id="moto_motorcycle" vClass="motorcycle"/>
    <trip id="moto0" type="moto_motorcycle" depart="0.00" departLane="best" departSpeed="max" from="4790799" to="-19002363#3"/>
    <trip id="moto1" type="moto_motorcycle" depart="8.11" departLane="best" from="158023913#4" to="-136571494#1"/>
    <trip id="moto2" type="moto_motorcycle" depart="16.23" departLane="best" from="-330840125#0" to="202156995#1"/>
    <trip id="moto3" type="moto_motorcycle" depart="24.34" departLane="best" from="-132600840#0" to="-339201177#0"/>
    <trip id="moto4" type="moto_motorcycle" depart="32.46" departLane="best" from="4610351#0" to="327518240#0"/>
    <trip id="moto5" type="moto_motorcycle" depart="40.57" departLane="best" from="-77348147" to="-24990040"/>
    <trip id="moto6" type="moto_motorcycle" depart="48.68" departLane="best" from="750204886" to="11103418"/>
    <trip id="moto7" type="moto_motorcycle" depart="56.80" departLane="best" from="-194069450#0" to="-195104960#0"/>
    <trip id="moto8" type="moto_motorcycle" depart="64.91" departLane="best" from="4612963" to="24992424#3"/>
    <trip id="moto9" type="moto_motorcycle" depart="73.03" departLane="best" from="114667396#0" to="23852053#0"/>
    <trip id="moto10" type="moto_motorcycle" depart="81.14" departLane="best" from="4610479#1" to="28016312#0"/>
    <trip id="moto11" type="moto_motorcycle" depart="89.25" departLane="best" from="316746323#1" to="-158023913#2"/>
    <trip id="moto12" type="moto_motorcycle" depart="97.37" departLane="best" from="-339201185" to="-534588621#1"/>
    <trip id="moto13" type="moto_motorcycle" depart="105.48" departLane="best" from="-176043806#0" to="-437325047#5"/>
    <trip id="moto14" type="moto_motorcycle" depart="113.60" departLane="best" departSpeed="max" from="-195104960#2" to="-461526153"/>
    <trip id="moto15" type="moto_motorcycle" depart="121.71" departLane="best" from="111833186#2" to="-35578576#0"/>
    <trip id="moto16" type="moto_motorcycle" depart="129.82" departLane="best" from="-24992424#5" to="344594962"/>
    <trip id="moto17" type="moto_motorcycle" depart="137.94" departLane="best" from="-24243107#0" to="155186522"/>
    <trip id="moto19" type="moto_motorcycle" depart="154.17" departLane="best" departSpeed="max" from="236092221#0" to="31112516"/>
    <trip id="moto20" type="moto_motorcycle" depart="162.28" departLane="best" from="4611706#0" to="437325051#1"/>
    <trip id="moto21" type="moto_motorcycle" depart="170.39" departLane="best" from="-534588621#1" to="-4612968#2"/>
    <trip id="moto23" type="moto_motorcycle" depart="186.62" departLane="best" from="54698846#0" to="19002363#4"/>
    <trip id="moto24" type="moto_motorcycle" depart="194.74" departLane="best" from="23809670#2" to="-4611696#4"/>
    <trip id="moto25" type="moto_motorcycle" depart="202.85" departLane="best" from="24243052#0" to="51167934#2"/>
    <trip id="moto26" type="moto_motorcycle" depart="210.96" departLane="best" from="136571494#3" to="-43156728#0"/>
    <trip id="moto27" type="moto_motorcycle" depart="219.08" departLane="best" from="84960595" to="202817674#0"/>
    <trip id="moto28" type="moto_motorcycle" depart="227.19" departLane="best" from="4403559#1" to="169195795#6"/>
    <trip id="moto29" type="moto_motorcycle" depart="235.30" departLane="best" from="-168942727#2" to="156364556#1"/>
    <trip id="moto30" type="moto_motorcycle" depart="243.42" departLane="best" from="840860363#1" to="234463928#1"/>
    <trip id="moto32" type="moto_motorcycle" depart="259.65" departLane="best" from="-111833186#2" to="340498982#4"/>
    <trip id="moto33" type="moto_motorcycle" depart="267.76" departLane="best" from="465376240#0" to="-4611706#0"/>
    <trip id="moto34" type="moto_motorcycle" depart="275.87" departLane="best" from="195105328#1" to="-292429063#1"/>
    <trip id="moto35" type="moto_motorcycle" depart="283.99" departLane="best" from="541763975" to="465376240#0"/>
    <trip id="moto37" type="moto_motorcycle" depart="300.22" departLane="best" from="24913519#1" to="-243854725#2"/>
    <trip id="moto38" type="moto_motorcycle" depart="308.33" departLane="best" from="4067932#1" to="23809670#1"/>
    <trip id="moto39" type="moto_motorcycle" depart="316.44" departLane="best" from="437325047#0" to="234463931#1"/>
    <trip id="moto41" type="moto_motorcycle" depart="332.67" departLane="best" from="-122820534#0" to="61584187#3"/>
    <trip id="moto42" type="moto_motorcycle" depart="340.79" departLane="best" from="465376243#1" to="4611696#5"/>
    <trip id="moto43" type="moto_motorcycle" depart="348.90" departLane="best" departSpeed="max" from="-493008124" to="-168940071#1"/>
    <trip id="moto44" type="moto_motorcycle" depart="357.01" departLane="best" departSpeed="max" from="465376243#0" to="68647306#5"/>
    <trip id="moto45" type="moto_motorcycle" depart="365.13" departLane="best" from="-188914559" to="195401013#3"/>
    <trip id="moto46" type="moto_motorcycle" depart="373.24" departLane="best" from="188044903#0" to="23851930"/>
    <trip id="moto47" type="moto_motorcycle" depart="381.36" departLane="best" from="-454285423#4" to="465376254"/>
    <trip id="moto48" type="moto_motorcycle" depart="389.47" departLane="best" from="15971197#1" to="-35578576#2"/>
    <trip id="moto49" type="moto_motorcycle" depart="397.58" departLane="best" from="23013165#1" to="344594966"/>
    <trip id="moto50" type="moto_motorcycle" depart="405.70" departLane="best" from="-310176513#4" to="-751595930"/>
    <trip id="moto51" type="moto_motorcycle" depart="413.81" departLane="best" from="168940071#3" to="22972219#0"/>
    <trip id="moto52" type="moto_motorcycle" depart="421.93" departLane="best" from="-202817674#3" to="-43231842#0"/>
    <trip id="moto53" type="moto_motorcycle" depart="430.04" departLane="best" from="-751595929#2" to="246044848"/>
    <trip id="moto54" type="moto_motorcycle" depart="438.15" departLane="best" departSpeed="max" from="-168943640#2" to="29177662#1"/>
    <trip id="moto55" type="moto_motorcycle" depart="446.27" departLane="best" from="-34848160#0" to="54048862#1"/>
    <trip id="moto56" type="moto_motorcycle" depart="454.38" departLane="best" from="-370359204#0" to="309155392"/>
    <trip id="moto57" type="moto_motorcycle" depart="462.50" departLane="best" from="-31313667#0" to="-23809670#2"/>
    <trip id="moto58" type="moto_motorcycle" depart="470.61" departLane="best" from="6227658#2" to="24243052#1"/>
    <trip id="moto60" type="moto_motorcycle" depart="486.84" departLane="best" from="-194962375#2" to="171826985#0"/>
    <trip id="moto61" type="moto_motorcycle" depart="494.95" departLane="best" from="15971197#1" to="194069450#1"/>
    <trip id="moto62" type="moto_motorcycle" depart="503.07" departLane="best" from="137630045" to="111833185#1"/>
    <trip id="moto63" type="moto_motorcycle" depart="511.18" departLane="best" from="158023913#4" to="-461526153"/>
    <trip id="moto64" type="moto_motorcycle" depart="519.29" departLane="best" from="168943639#1" to="4613306#1"/>
    <trip id="moto65" type="moto_motorcycle" depart="527.41" departLane="best" from="234463931#2" to="-165415464#1"/>
    <trip id="moto66" type="moto_motorcycle" depart="535.52" departLane="best" from="819027709#0" to="606078065"/>
    <trip id="moto68" type="moto_motorcycle" depart="551.75" departLane="best" from="19002363#3" to="-36892597#1"/>
    <trip id="moto69" type="moto_motorcycle" depart="559.86" departLane="best" from="136571494#5" to="-168940071#1"/>
    <trip id="moto70" type="moto_motorcycle" depart="567.98" departLane="best" from="-454285423#4" to="4403559#2"/>
    <trip id="moto71" type="moto_motorcycle" depart="576.09" departLane="best" from="169195795#9" to="169195795#7"/>
    <trip id="moto72" type="moto_motorcycle" depart="584.21" departLane="best" from="750204886" to="83517339"/>
    <trip id="moto73" type="moto_motorcycle" depart="592.32" departLane="best" departSpeed="max" from="236092221#0" to="340498982#2"/>
    <trip id="moto74" type="moto_motorcycle" depart="600.43" departLane="best" from="-24242882#2" to="-6227658#2"/>
    <trip id="moto75" type="moto_motorcycle" depart="608.55" departLane="best" from="23121445#1" to="370359204#0"/>
    <trip id="moto76" type="moto_motorcycle" depart="616.66" departLane="best" from="-36892597#1" to="-23121445#3"/>
    <trip id="moto77" type="moto_motorcycle" depart="624.77" departLane="best" from="478432725" to="-454285423#4"/>
    <trip id="moto78" type="moto_motorcycle" depart="632.89" departLane="best" from="24243107#0" to="28016312#1"/>
    <trip id="moto79" type="moto_motorcycle" depart="641.00" departLane="best" from="158023913#0" to="243854725#3"/>
    <trip id="moto80" type="moto_motorcycle" depart="649.12" departLane="best" from="202156995#0" to="6228081"/>
    <trip id="moto81" type="moto_motorcycle" depart="657.23" departLane="best" from="30721662#1" to="-62363401"/>
    <trip id="moto83" type="moto_motorcycle" depart="673.46" departLane="best" from="84960597#0" to="840860363#1"/>
    <trip id="moto84" type="moto_motorcycle" depart="681.57" departLane="best" from="-454285423#4" to="6227658#2"/>
    <trip id="moto85" type="moto_motorcycle" depart="689.69" departLane="best" from="465376255#2" to="4773465#1"/>
    <trip id="moto86" type="moto_motorcycle" depart="697.80" departLane="best" from="4610362#7" to="-6228081"/>
    <trip id="moto87" type="moto_motorcycle" depart="705.91" departLane="best" from="30720544#1" to="66071370"/>
    <trip id="moto88" type="moto_motorcycle" depart="714.03" departLane="best" from="-234463931#1" to="-225400578#2"/>
    <trip id="moto89" type="moto_motorcycle" depart="722.14" departLane="best" from="-195397561#0" to="23852053#1"/>
    <trip id="moto90" type="moto_motorcycle" depart="730.26" departLane="best" from="340498976#2" to="-339201177#4"/>
    <trip id="moto91" type="moto_motorcycle" depart="738.37" departLane="best" from="28251222#1" to="-4611706#0"/>
    <trip id="moto92" type="moto_motorcycle" depart="746.48" departLane="best" from="19002403#1" to="54048862#1"/>
    <trip id="moto93" type="moto_motorcycle" depart="754.60" departLane="best" from="4612961#1" to="-194962375#0"/>
    <trip id="moto94" type="moto_motorcycle" depart="762.71" departLane="best" from="354528932" to="23852053#0"/>
    <trip id="moto95" type="moto_motorcycle" depart="770.83" departLane="best" departSpeed="max" from="165415464#0" to="-111833186#0"/>
    <trip id="moto97" type="moto_motorcycle" depart="787.05" departLane="best" from="4611693#2" to="24243107#2"/>
    <trip id="moto98" type="moto_motorcycle" depart="795.17" departLane="best" departSpeed="max" from="-24241762#2" to="-234463931#2"/>
    <trip id="moto99" type="moto_motorcycle" depart="803.28" departLane="best" departSpeed="max" from="-493008124" to="51167934#4"/>
    <trip id="moto100" type="moto_motorcycle" depart="811.40" departLane="best" from="-437325047#5" to="-195397561#0"/>
    <trip id="moto101" type="moto_motorcycle" depart="819.51" departLane="best" from="437325047#2" to="4790825#1"/>
    <trip id="moto102" type="moto_motorcycle" depart="827.62" departLane="best" from="153698390#1" to="28251222#0"/>
    <trip id="moto103" type="moto_motorcycle" depart="835.74" departLane="best" from="-24242882#2" to="61584187#3"/>
    <trip id="moto104" type="moto_motorcycle" depart="843.85" departLane="best" from="4613292#0" to="82652397#0"/>
    <trip id="moto105" type="moto_motorcycle" depart="851.97" departLane="best" from="4610362#1" to="4773465#3"/>
    <trip id="moto106" type="moto_motorcycle" depart="860.08" departLane="best" from="-131505631#1" to="35269774#2"/>
    <trip id="moto107" type="moto_motorcycle" depart="868.19" departLane="best" from="-66071379#0" to="61584187#4"/>
    <trip id="moto108" type="moto_motorcycle" depart="876.31" departLane="best" from="4610362#1" to="-4612968#1"/>
    <trip id="moto109" type="moto_motorcycle" depart="884.42" departLane="best" from="-339201177#1" to="4610472#2"/>
    <trip id="moto110" type="moto_motorcycle" depart="892.54" departLane="best" from="171826985#1" to="-694626562"/>
    <trip id="moto111" type="moto_motorcycle" depart="900.65" departLane="best" departSpeed="max" from="454285423#0" to="-43231842#3"/>
    <trip id="moto112" type="moto_motorcycle" depart="908.76" departLane="best" from="-128396190#3" to="-31313667#1"/>
    <trip id="moto113" type="moto_motorcycle" depart="916.88" departLane="best" from="7917219#3" to="-465376254"/>
    <trip id="moto114" type="moto_motorcycle" depart="924.99" departLane="best" from="289966845" to="168937986#4"/>
    <trip id="moto115" type="moto_motorcycle" depart="933.11" departLane="best" from="66071373#1" to="-225400578#1"/>
    <trip id="moto116" type="moto_motorcycle" depart="941.22" departLane="best" from="756306892" to="-4612968#0"/>
    <trip id="moto118" type="moto_motorcycle" depart="957.45" departLane="best" departSpeed="max" from="122820534#0" to="24243056"/>
    <trip id="moto119" type="moto_motorcycle" depart="965.56" departLane="best" departSpeed="max" from="-4396823" to="339201177#4"/>
    <trip id="moto121" type="moto_motorcycle" depart="981.79" departLane="best" from="23013165#1" to="340498982#3"/>
    <trip id="moto122" type="moto_motorcycle" depart="989.90" departLane="best" from="354528932" to="310176513#0"/>
    <trip id="moto123" type="moto_motorcycle" depart="998.02" departLane="best" from="111251382#3" to="-169660686#0"/>
    <trip id="moto124" type="moto_motorcycle" depart="1006.13" departLane="best" from="-534588621#0" to="4612969#2"/>
    <trip id="moto125" type="moto_motorcycle" depart="1014.24" departLane="best" from="340498976#5" to="-62363401"/>
    <trip id="moto126" type="moto_motorcycle" depart="1022.36" departLane="best" from="-51167934#1" to="168942727#1"/>
    <trip id="moto127" type="moto_motorcycle" depart="1030.47" departLane="best" from="137630045" to="-6227658#1"/>
    <trip id="moto128" type="moto_motorcycle" depart="1038.59" departLane="best" from="-23121445#1" to="169195795#4"/>
    <trip id="moto130" type="moto_motorcycle" depart="1054.81" departLane="best" from="168937986#1" to="24243107#0"/>
    <trip id="moto131" type="moto_motorcycle" depart="1062.93" departLane="best" from="168942727#3" to="-36892597#1"/>
    <trip id="moto132" type="moto_motorcycle" depart="1071.04" departLane="best" departSpeed="max" from="187111590#0" to="523630409"/>
    <trip id="moto133" type="moto_motorcycle" depart="1079.16" departLane="best" departSpeed="max" from="454285423#0" to="-28016312#3"/>
    <trip id="moto135" type="moto_motorcycle" depart="1095.38" departLane="best" from="30721662#2" to="-43231842#0"/>
    <trip id="moto136" type="moto_motorcycle" depart="1103.50" departLane="best" from="-43231842#3" to="195104960#1"/>
    <trip id="moto137" type="moto_motorcycle" depart="1111.61" departLane="best" from="4612968#0" to="-173197451#0"/>
    <trip id="moto138" type="moto_motorcycle" depart="1119.73" departLane="best" from="156364566#1" to="29177662#1"/>
    <trip id="moto139" type="moto_motorcycle" depart="1127.84" departLane="best" departSpeed="max" from="-29290632" to="316092515"/>
    <trip id="moto140" type="moto_motorcycle" depart="1135.95" departLane="best" from="194069450#1" to="-454285423#1"/>
    <trip id="moto141" type="moto_motorcycle" depart="1144.07" departLane="best" from="370359204#2" to="437325047#0"/>
    <trip id="moto142" type="moto_motorcycle" depart="1152.18" departLane="best" from="-195397561#0" to="169660686#1"/>
    <trip id="moto143" type="moto_motorcycle" depart="1160.30" departLane="best" departSpeed="max" from="-25294729#1" to="751595928#0"/>
    <trip id="moto144" type="moto_motorcycle" depart="1168.41" departLane="best" from="30721660#2" to="831694400"/>
    <trip id="moto145" type="moto_motorcycle" depart="1176.52" departLane="best" departSpeed="max" from="4790799" to="25294729#1"/>
    <trip id="moto146" type="moto_motorcycle" depart="1184.64" departLane="best" from="340498976#5" to="202156995#0"/>
    <trip id="moto147" type="moto_motorcycle" depart="1192.75" departLane="best" from="4610600" to="23813206#2"/>
    <trip id="moto149" type="moto_motorcycle" depart="1208.98" departLane="best" from="-437325047#2" to="292429063#1"/>
    <trip id="moto150" type="moto_motorcycle" depart="1217.09" departLane="best" from="427637455" to="23013165#2"/>
    <trip id="moto151" type="moto_motorcycle" depart="1225.21" departLane="best" from="25294729#0" to="-4612981#1"/>
    <trip id="moto152" type="moto_motorcycle" depart="1233.32" departLane="best" from="23013165#2" to="-24241797#3"/>
    <trip id="moto153" type="moto_motorcycle" depart="1241.44" departLane="best" from="-35578576#0" to="31313667#3"/>
    <trip id="moto154" type="moto_motorcycle" depart="1249.55" departLane="best" from="156364570#0" to="-34848160#0"/>
    <trip id="moto155" type="moto_motorcycle" depart="1257.66" departLane="best" from="158023913#2" to="54048862#1"/>
    <trip id="moto156" type="moto_motorcycle" depart="1265.78" departLane="best" departSpeed="max" from="4612970#0" to="43231842#1"/>
    <trip id="moto157" type="moto_motorcycle" depart="1273.89" departLane="best" from="120675240#0" to="-111833185#0"/>
    <trip id="moto158" type="moto_motorcycle" depart="1282.01" departLane="best" from="-84960597#0" to="380240681"/>
    <trip id="moto159" type="moto_motorcycle" depart="1290.12" departLane="best" from="4612968#3" to="728838409#0"/>
    <trip id="moto160" type="moto_motorcycle" depart="1298.23" departLane="best" from="23121445#5" to="24992424#3"/>
    <trip id="moto161" type="moto_motorcycle" depart="1306.35" departLane="best" from="-339201177#0" to="-43156728#0"/>
    <trip id="moto162" type="moto_motorcycle" depart="1314.46" departLane="best" from="168940071#1" to="-136571494#1"/>
    <trip id="moto163" type="moto_motorcycle" depart="1322.58" departLane="best" from="132600840#0" to="24242892#2"/>
    <trip id="moto164" type="moto_motorcycle" depart="1330.69" departLane="best" from="-234463931#2" to="19002403#1"/>
    <trip id="moto165" type="moto_motorcycle" depart="1338.80" departLane="best" departSpeed="max" from="-164039095#1" to="155186522"/>
    <trip id="moto166" type="moto_motorcycle" depart="1346.92" departLane="best" departSpeed="max" from="-312176585#2" to="100405009#2"/>
    <trip id="moto167" type="moto_motorcycle" depart="1355.03" departLane="best" from="389705415#1" to="155186522"/>
    <trip id="moto168" type="moto_motorcycle" depart="1363.15" departLane="best" from="-437325051#0" to="-176043806#1"/>
    <trip id="moto169" type="moto_motorcycle" depart="1371.26" departLane="best" from="-122820534#0" to="23809670#2"/>
    <trip id="moto171" type="moto_motorcycle" depart="1387.49" departLane="best" from="301241483#3" to="38208961"/>
    <trip id="moto172" type="moto_motorcycle" depart="1395.60" departLane="best" from="-122820534#1" to="-243854725#2"/>
    <trip id="moto173" type="moto_motorcycle" depart="1403.71" departLane="best" from="-23121445#0" to="309479676"/>
    <trip id="moto174" type="moto_motorcycle" depart="1411.83" departLane="best" from="31313667#1" to="43231842#2"/>
    <trip id="moto175" type="moto_motorcycle" depart="1419.94" departLane="best" from="-24913267#2" to="251884680"/>
    <trip id="moto176" type="moto_motorcycle" depart="1428.06" departLane="best" from="36892597#1" to="-225400578#1"/>
    <trip id="moto178" type="moto_motorcycle" depart="1444.28" departLane="best" from="-195397561#1" to="-132600840#0"/>
    <trip id="moto179" type="moto_motorcycle" depart="1452.40" departLane="best" from="310177222#1" to="289966845"/>
    <trip id="moto180" type="moto_motorcycle" depart="1460.51" departLane="best" from="-195105328#0" to="437325047#5"/>
    <trip id="moto181" type="moto_motorcycle" depart="1468.63" departLane="best" from="4612968#0" to="24914992#1"/>
    <trip id="moto183" type="moto_motorcycle" depart="1484.85" departLane="best" from="437325047#5" to="112128419#1"/>
    <trip id="moto184" type="moto_motorcycle" depart="1492.97" departLane="best" from="195397561#4" to="111833186#1"/>
    <trip id="moto185" type="moto_motorcycle" depart="1501.08" departLane="best" from="4612968#0" to="4610479#1"/>
    <trip id="moto186" type="moto_motorcycle" depart="1509.20" departLane="best" from="-195397541#1" to="751595930"/>
    <trip id="moto187" type="moto_motorcycle" depart="1517.31" departLane="best" from="286653195" to="4611694#0"/>
    <trip id="moto188" type="moto_motorcycle" depart="1525.42" departLane="best" from="-4588217#1" to="4610362#6"/>
    <trip id="moto189" type="moto_motorcycle" depart="1533.54" departLane="best" from="168940071#1" to="34848160#0"/>
    <trip id="moto190" type="moto_motorcycle" depart="1541.65" departLane="best" from="4610600" to="-19002363#3"/>
    <trip id="moto191" type="moto_motorcycle" depart="1549.77" departLane="best" from="47016365#1" to="-454285423#1"/>
    <trip id="moto193" type="moto_motorcycle" depart="1565.99" departLane="best" from="11483007#0" to="-136571494#0"/>
    <trip id="moto194" type="moto_motorcycle" depart="1574.11" departLane="best" from="4612968#1" to="-310176513#2"/>
    <trip id="moto195" type="moto_motorcycle" depart="1582.22" departLane="best" departSpeed="max" from="-312176585#2" to="4610351#1"/>
    <trip id="moto196" type="moto_motorcycle" depart="1590.34" departLane="best" from="-77348147" to="4773465#2"/>
    <trip id="moto197" type="moto_motorcycle" depart="1598.45" departLane="best" from="-111833186#1" to="68647306#6"/>
    <trip id="moto198" type="moto_motorcycle" depart="1606.56" departLane="best" from="19002403#1" to="415280722"/>
    <trip id="moto199" type="moto_motorcycle" depart="1614.68" departLane="best" from="310177222#1" to="301241681#4"/>
    <trip id="moto200" type="moto_motorcycle" depart="1622.79" departLane="best" from="190447767" to="4588217#1"/>
    <trip id="moto201" type="moto_motorcycle" depart="1630.91" departLane="best" from="-194069450#3" to="-43156728#4"/>
    <trip id="moto202" type="moto_motorcycle" depart="1639.02" departLane="best" from="313195075" to="-4612970#0"/>
    <trip id="moto203" type="moto_motorcycle" depart="1647.13" departLane="best" from="-437325051#0" to="-23121445#3"/>
    <trip id="moto204" type="moto_motorcycle" depart="1655.25" departLane="best" from="-292429063#0" to="-23121445#2"/>
    <trip id="moto205" type="moto_motorcycle" depart="1663.36" departLane="best" from="22972195#2" to="43156728#2"/>
    <trip id="moto206" type="moto_motorcycle" depart="1671.48" departLane="best" from="-28251222#0" to="-370359204#0"/>
    <trip id="moto207" type="moto_motorcycle" depart="1679.59" departLane="best" from="19002363#2" to="340498982#9"/>
    <trip id="moto208" type="moto_motorcycle" depart="1687.70" departLane="best" from="82658671#1" to="23121445#2"/>
    <trip id="moto209" type="moto_motorcycle" depart="1695.82" departLane="best" from="-4611706#0" to="-195397541#0"/>
    <trip id="moto210" type="moto_motorcycle" depart="1703.93" departLane="best" from="225400578#2" to="-4612981#1"/>
    <trip id="moto211" type="moto_motorcycle" depart="1712.05" departLane="best" from="82649618" to="23852053#1"/>
    <trip id="moto212" type="moto_motorcycle" depart="1720.16" departLane="best" from="312514710#0" to="-234463931#1"/>
    <trip id="moto214" type="moto_motorcycle" depart="1736.39" departLane="best" from="461526153" to="24243052#4"/>
    <trip id="moto215" type="moto_motorcycle" depart="1744.50" departLane="best" from="176043806#0" to="176043794"/>
    <trip id="moto216" type="moto_motorcycle" depart="1752.62" departLane="best" from="-28016312#3" to="-165415464#1"/>
    <trip id="moto217" type="moto_motorcycle" depart="1760.73" departLane="best" from="66071379#1" to="195105328#1"/>
    <trip id="moto218" type="moto_motorcycle" depart="1768.84" departLane="best" from="4610472#1" to="168937986#5"/>
    <trip id="moto219" type="moto_motorcycle" depart="1776.96" departLane="best" from="-168937986#3" to="-24243107#1"/>
    <trip id="moto220" type="moto_motorcycle" depart="1785.07" departLane="best" from="23809678#1" to="-66071379#0"/>
    <trip id="moto221" type="moto_motorcycle" depart="1793.18" departLane="best" from="83517336#4" to="-23121445#1"/>
    <trip id="moto222" type="moto_motorcycle" depart="1801.30" departLane="best" from="4403559#0" to="-43231842#1"/>
    <trip id="moto224" type="moto_motorcycle" depart="1817.53" departLane="best" from="168942727#3" to="4613306#0"/>
    <trip id="moto225" type="moto_motorcycle" depart="1825.64" departLane="best" from="83517332#1" to="-705182550"/>
    <trip id="moto226" type="moto_motorcycle" depart="1833.75" departLane="best" departSpeed="max" from="24993933#0" to="25294729#0"/>
    <trip id="moto228" type="moto_motorcycle" depart="1849.98" departLane="best" from="305153173" to="-24992424#2"/>
    <trip id="moto229" type="moto_motorcycle" depart="1858.10" departLane="best" from="-24993933#4" to="-173197451#1"/>
    <trip id="moto231" type="moto_motorcycle" depart="1874.32" departLane="best" from="24243107#0" to="-55741054"/>
    <trip id="moto232" type="moto_motorcycle" depart="1882.44" departLane="best" from="-35578576#1" to="339201177#2"/>
    <trip id="moto233" type="moto_motorcycle" depart="1890.55" departLane="best" from="313195075" to="19002357#1"/>
    <trip id="moto234" type="moto_motorcycle" depart="1898.67" departLane="best" from="310176513#7" to="60333311#2"/>
    <trip id="moto235" type="moto_motorcycle" depart="1906.78" departLane="best" from="305153174" to="6227658#3"/>
    <trip id="moto236" type="moto_motorcycle" depart="1914.89" departLane="best" from="292429062#3" to="541295974"/>
    <trip id="moto237" type="moto_motorcycle" depart="1923.01" departLane="best" from="4610476#3" to="-169999355#2"/>
    <trip id="moto238" type="moto_motorcycle" depart="1931.12" departLane="best" from="-24243107#2" to="-750204886"/>
    <trip id="moto239" type="moto_motorcycle" depart="1939.24" departLane="best" from="-4612968#1" to="-234463931#0"/>
    <trip id="moto240" type="moto_motorcycle" depart="1947.35" departLane="best" from="68647306#1" to="202156991#1"/>
    <trip id="moto241" type="moto_motorcycle" depart="1955.46" departLane="best" from="194069450#0" to="-176043806#0"/>
    <trip id="moto242" type="moto_motorcycle" depart="1963.58" departLane="best" from="-156364553#0" to="171826985#1"/>
    <trip id="moto243" type="moto_motorcycle" depart="1971.69" departLane="best" from="-6227658#2" to="-4588217#5"/>
    <trip id="moto244" type="moto_motorcycle" depart="1979.81" departLane="best" from="-19002363#6" to="751602168"/>
    <trip id="moto245" type="moto_motorcycle" depart="1987.92" departLane="best" from="4611694#0" to="24243052#5"/>
    <trip id="moto246" type="moto_motorcycle" depart="1996.03" departLane="best" from="705182550" to="84960597#1"/>
    <trip id="moto247" type="moto_motorcycle" depart="2004.15" departLane="best" from="30721662#2" to="-4612968#3"/>
    <trip id="moto248" type="moto_motorcycle" depart="2012.26" departLane="best" from="176043806#1" to="305153174"/>
    <trip id="moto249" type="moto_motorcycle" depart="2020.38" departLane="best" from="54698846#2" to="-310176513#2"/>
    <trip id="moto250" type="moto_motorcycle" depart="2028.49" departLane="best" from="24243052#1" to="292429062#2"/>
    <trip id="moto251" type="moto_motorcycle" depart="2036.60" departLane="best" from="190447768#1" to="-194069450#3"/>
    <trip id="moto252" type="moto_motorcycle" depart="2044.72" departLane="best" from="-82658674#2" to="109819340#3"/>
    <trip id="moto253" type="moto_motorcycle" depart="2052.83" departLane="best" from="30721660#5" to="4613293"/>
    <trip id="moto254" type="moto_motorcycle" depart="2060.95" departLane="best" departSpeed="max" from="-66071370" to="31313667#2"/>
    <trip id="moto255" type="moto_motorcycle" depart="2069.06" departLane="best" from="-4612968#1" to="68647306#3"/>
    <trip id="moto256" type="moto_motorcycle" depart="2077.17" departLane="best" from="4610362#4" to="23851930"/>
    <trip id="moto258" type="moto_motorcycle" depart="2093.40" departLane="best" from="139877314#1" to="225400578#1"/>
    <trip id="moto259" type="moto_motorcycle" depart="2101.52" departLane="best" from="831694400" to="30721660#2"/>
    <trip id="moto261" type="moto_motorcycle" depart="2117.74" departLane="best" from="38208961" to="289966097"/>
    <trip id="moto262" type="moto_motorcycle" depart="2125.86" departLane="best" from="389705411#1" to="-339201177#4"/>
    <trip id="moto263" type="moto_motorcycle" depart="2133.97" departLane="best" from="234463931#1" to="61584187#1"/>
    <trip id="moto264" type="moto_motorcycle" depart="2142.09" departLane="best" from="168940071#3" to="327518240#0"/>