<?xml version="1.0" encoding="UTF-8"?>

<!-- generated on 09/27/20 12:43:40 by Eclipse SUMO duarouter Version 1.7.0
<configuration xmlns:xsi="http://www.w3.org/2001/XMLSchema-instance" xsi:noNamespaceSchemaLocation="http://sumo.dlr.de/xsd/duarouterConfiguration.xsd">

    <input>
        <net-file value="C:\Users\narwayaayush\Sumo\2020-09-27-12-43-01\osm.net.xml"/>
        <route-files value="C:\Users\narwayaayush\Sumo\2020-09-27-12-43-01\osm.passenger.trips.xml"/>
    </input>

    <output>
        <output-file value="C:\Users\narwayaayush\Sumo\2020-09-27-12-43-01\osm.passenger.trips.xml.tmp"/>
        <write-trips value="true"/>
    </output>

    <time>
        <begin value="0"/>
        <end value="3600"/>
    </time>

    <report>
        <no-warnings value="true"/>
        <ignore-errors value="true"/>
        <no-step-log value="true"/>
    </report>

</configuration>
-->

<routes xmlns:xsi="http://www.w3.org/2001/XMLSchema-instance" xsi:noNamespaceSchemaLocation="http://sumo.dlr.de/xsd/routes_file.xsd">
    <vType id="veh_passenger" vClass="passenger"/>
    <trip id="veh0" type="veh_passenger" depart="0.00" departLane="best" departSpeed="max" from="-51167934#4" to="-4612968#3"/>
    <trip id="veh1" type="veh_passenger" depart="2.70" departLane="best" from="35578576#1" to="310176513#9"/>
    <trip id="veh2" type="veh_passenger" depart="5.41" departLane="best" from="54048862#0" to="-195397561#0"/>
    <trip id="veh3" type="veh_passenger" depart="8.11" departLane="best" from="171826985#0" to="-136571494#5"/>
    <trip id="veh4" type="veh_passenger" depart="10.82" departLane="best" from="-437325051#0" to="23851930"/>
    <trip id="veh5" type="veh_passenger" depart="13.52" departLane="best" from="-136571494#1" to="-4402228"/>
    <trip id="veh6" type="veh_passenger" depart="16.23" departLane="best" from="-437325054#1" to="25294729#1"/>
    <trip id="veh7" type="veh_passenger" depart="18.93" departLane="best" from="4610479#1" to="-111833185#0"/>
    <trip id="veh8" type="veh_passenger" depart="21.64" departLane="best" from="120675240#0" to="-310177222#0"/>
    <trip id="veh9" type="veh_passenger" depart="24.34" departLane="best" from="819027709#0" to="163368988#3"/>
    <trip id="veh10" type="veh_passenger" depart="27.05" departLane="best" from="-195105328#1" to="-225400578#2"/>
    <trip id="veh12" type="veh_passenger" depart="32.46" departLane="best" from="4610476#2" to="35269774#2"/>
    <trip id="veh13" type="veh_passenger" depart="35.16" departLane="best" from="23813206#0" to="82652397#0"/>
    <trip id="veh14" type="veh_passenger" depart="37.87" departLane="best" from="156364570#1" to="246044848"/>
    <trip id="veh15" type="veh_passenger" depart="40.57" departLane="best" from="4612961#0" to="29177662#1"/>
    <trip id="veh16" type="veh_passenger" depart="43.27" departLane="best" from="465376255#2" to="24990040"/>
    <trip id="veh17" type="veh_passenger" depart="45.98" departLane="best" from="31313667#3" to="-165415464#1"/>
    <trip id="veh18" type="veh_passenger" depart="48.68" departLane="best" from="-454285423#0" to="112128418#1"/>
    <trip id="veh19" type="veh_passenger" depart="51.39" departLane="best" from="-19002363#3" to="-474362271"/>
    <trip id="veh20" type="veh_passenger" depart="54.09" departLane="best" from="289966845" to="169195795#5"/>
    <trip id="veh21" type="veh_passenger" depart="56.80" departLane="best" departSpeed="max" from="153698402" to="-4610524"/>
    <trip id="veh22" type="veh_passenger" depart="59.50" departLane="best" departSpeed="max" from="-4790825#2" to="72157174#1"/>
    <trip id="veh23" type="veh_passenger" depart="62.21" departLane="best" from="301241483#3" to="289966845"/>
    <trip id="veh24" type="veh_passenger" depart="64.91" departLane="best" from="-292429062#1" to="35269774#2"/>
    <trip id="veh26" type="veh_passenger" depart="70.32" departLane="best" from="831694400" to="301241681#4"/>
    <trip id="veh27" type="veh_passenger" depart="73.03" departLane="best" from="24243052#2" to="312176585#2"/>
    <trip id="veh28" type="veh_passenger" depart="75.73" departLane="best" from="4612973#0" to="4588217#1"/>
    <trip id="veh29" type="veh_passenger" depart="78.43" departLane="best" from="-454285423#4" to="-153698380#2"/>
    <trip id="veh30" type="veh_passenger" depart="81.14" departLane="best" from="100405009#3" to="-84960595"/>
    <trip id="veh31" type="veh_passenger" depart="83.84" departLane="best" from="-43156728#4" to="728838409#2"/>
    <trip id="veh32" type="veh_passenger" depart="86.55" departLane="best" departSpeed="max" from="4790799" to="136571494#4"/>
    <trip id="veh33" type="veh_passenger" depart="89.25" departLane="best" from="60333313" to="202156991#2"/>
    <trip id="veh34" type="veh_passenger" depart="91.96" departLane="best" departSpeed="max" from="-4790825#2" to="-6227658#1"/>
    <trip id="veh36" type="veh_passenger" depart="97.37" departLane="best" departSpeed="max" from="24914141#0" to="54781811#1"/>
    <trip id="veh37" type="veh_passenger" depart="100.07" departLane="best" from="168940071#2" to="-4612965"/>
    <trip id="veh38" type="veh_passenger" depart="102.78" departLane="best" departSpeed="max" from="-195104960#2" to="-165415464#1"/>
    <trip id="veh40" type="veh_passenger" depart="108.19" departLane="best" from="4588217#1" to="194962398#1"/>
    <trip id="veh41" type="veh_passenger" depart="110.89" departLane="best" departSpeed="max" from="-168943640#2" to="171826985#1"/>
    <trip id="veh42" type="veh_passenger" depart="113.60" departLane="best" from="840860363#1" to="24242892#4"/>
    <trip id="veh43" type="veh_passenger" depart="116.30" departLane="best" from="82658674#1" to="4790825#1"/>
    <trip id="veh44" type="veh_passenger" depart="119.00" departLane="best" from="-112128825#0" to="344594962"/>
    <trip id="veh45" type="veh_passenger" depart="121.71" departLane="best" from="309155392" to="24243052#4"/>
    <trip id="veh46" type="veh_passenger" depart="124.41" departLane="best" from="-23121445#1" to="195401013#2"/>
    <trip id="veh47" type="veh_passenger" depart="127.12" departLane="best" from="188386313#2" to="81112790#1"/>
    <trip id="veh48" type="veh_passenger" depart="129.82" departLane="best" departSpeed="max" from="4790799" to="-82658671#0"/>
    <trip id="veh49" type="veh_passenger" depart="132.53" departLane="best" from="202157002#1" to="-43156728#0"/>
    <trip id="veh50" type="veh_passenger" depart="135.23" departLane="best" from="60333311#2" to="492609985#0"/>
    <trip id="veh51" type="veh_passenger" depart="137.94" departLane="best" from="-751595928#1" to="301241681#3"/>
    <trip id="veh52" type="veh_passenger" depart="140.64" departLane="best" from="25302636#1" to="-310176513#3"/>
    <trip id="veh53" type="veh_passenger" depart="143.35" departLane="best" departSpeed="max" from="43156728#0" to="24243092#0"/>
    <trip id="veh54" type="veh_passenger" depart="146.05" departLane="best" from="437325048#0" to="24242892#5"/>
    <trip id="veh56" type="veh_passenger" depart="151.46" departLane="best" from="-122820534#0" to="68647306#1"/>
    <trip id="veh57" type="veh_passenger" depart="154.17" departLane="best" from="490365295#0" to="4613293"/>
    <trip id="veh58" type="veh_passenger" depart="156.87" departLane="best" from="-82658674#4" to="-168942727#3"/>
    <trip id="veh59" type="veh_passenger" depart="159.57" departLane="best" departSpeed="max" from="4790799" to="751595930"/>
    <trip id="veh60" type="veh_passenger" depart="162.28" departLane="best" from="-194962375#2" to="23121445#5"/>
    <trip id="veh62" type="veh_passenger" depart="167.69" departLane="best" from="43156728#2" to="-24990040"/>
    <trip id="veh63" type="veh_passenger" depart="170.39" departLane="best" from="195401006" to="246044848"/>
    <trip id="veh64" type="veh_passenger" depart="173.10" departLane="best" departSpeed="max" from="-4790825#2" to="493008124"/>
    <trip id="veh65" type="veh_passenger" depart="175.80" departLane="best" from="171826985#0" to="-4611696#0"/>
    <trip id="veh66" type="veh_passenger" depart="178.51" departLane="best" departSpeed="max" from="23851922" to="35269774#2"/>
    <trip id="veh67" type="veh_passenger" depart="181.21" departLane="best" from="-34848160#0" to="136571494#0"/>
    <trip id="veh68" type="veh_passenger" depart="183.92" departLane="best" from="83517339" to="305093328#0"/>
    <trip id="veh69" type="veh_passenger" depart="186.62" departLane="best" departSpeed="max" from="187111590#0" to="23852053#1"/>
    <trip id="veh70" type="veh_passenger" depart="189.33" departLane="best" from="-23809670#1" to="-4612970#0"/>
    <trip id="veh71" type="veh_passenger" depart="192.03" departLane="best" from="112128825#0" to="25294729#1"/>
    <trip id="veh72" type="veh_passenger" depart="194.74" departLane="best" departSpeed="max" from="-4570580" to="-4612968#0"/>
    <trip id="veh74" type="veh_passenger" depart="200.14" departLane="best" from="-454285423#4" to="60333311#1"/>
    <trip id="veh75" type="veh_passenger" depart="202.85" departLane="best" departSpeed="max" from="465376243#0" to="-176043806#0"/>
    <trip id="veh76" type="veh_passenger" depart="205.55" departLane="best" from="-4610472#0" to="309479676"/>
    <trip id="veh77" type="veh_passenger" depart="208.26" departLane="best" from="-437325047#0" to="-24993933#0"/>
    <trip id="veh79" type="veh_passenger" depart="213.67" departLane="best" from="195397561#2" to="4610362#0"/>
    <trip id="veh80" type="veh_passenger" depart="216.37" departLane="best" from="4610476#2" to="-43231842#3"/>
    <trip id="veh81" type="veh_passenger" depart="219.08" departLane="best" from="830728708#1" to="-23121445#2"/>
    <trip id="veh82" type="veh_passenger" depart="221.78" departLane="best" from="168942727#2" to="164039095#1"/>
    <trip id="veh83" type="veh_passenger" depart="224.49" departLane="best" from="465376255#2" to="-6227658#3"/>
    <trip id="veh84" type="veh_passenger" depart="227.19" departLane="best" from="-312176585#1" to="19801618#1"/>
    <trip id="veh85" type="veh_passenger" depart="229.90" departLane="best" from="171826985#0" to="109819340#1"/>
    <trip id="veh86" type="veh_passenger" depart="232.60" departLane="best" from="-4612968#0" to="66071370"/>
    <trip id="veh87" type="veh_passenger" depart="235.30" departLane="best" departSpeed="max" from="187111590#0" to="4790825#1"/>
    <trip id="veh88" type="veh_passenger" depart="238.01" departLane="best" from="24242882#0" to="-168937986#4"/>
    <trip id="veh89" type="veh_passenger" depart="240.71" departLane="best" from="84960597#1" to="4613295"/>
    <trip id="veh90" type="veh_passenger" depart="243.42" departLane="best" from="82654055#0" to="66071379#1"/>
    <trip id="veh91" type="veh_passenger" depart="246.12" departLane="best" from="4613308#2" to="-339201177#4"/>
    <trip id="veh92" type="veh_passenger" depart="248.83" departLane="best" departSpeed="max" from="196850609" to="-4611696#0"/>
    <trip id="veh94" type="veh_passenger" depart="254.24" departLane="best" from="156364570#1" to="830728708#3"/>
    <trip id="veh95" type="veh_passenger" depart="256.94" departLane="best" departSpeed="max" from="-4790825#2" to="4610355#2"/>
    <trip id="veh96" type="veh_passenger" depart="259.65" departLane="best" from="188914559" to="194962398#1"/>
    <trip id="veh97" type="veh_passenger" depart="262.35" departLane="best" from="819027709#0" to="83517339"/>
    <trip id="veh98" type="veh_passenger" depart="265.06" departLane="best" from="24243052#0" to="342968607#1"/>
    <trip id="veh99" type="veh_passenger" depart="267.76" departLane="best" departSpeed="max" from="23851922" to="415280722"/>
    <trip id="veh100" type="veh_passenger" depart="270.47" departLane="best" from="202817674#0" to="47016365#1"/>
    <trip id="veh101" type="veh_passenger" depart="273.17" departLane="best" departSpeed="max" from="-25294729#1" to="82639457#1"/>
    <trip id="veh102" type="veh_passenger" depart="275.87" departLane="best" from="-19002363#3" to="-43159545"/>
    <trip id="veh103" type="veh_passenger" depart="278.58" departLane="best" from="24990040" to="310176513#6"/>
    <trip id="veh104" type="veh_passenger" depart="281.28" departLane="best" from="-4588217#2" to="-24243107#1"/>
    <trip id="veh105" type="veh_passenger" depart="283.99" departLane="best" from="534588621#1" to="-566764345"/>
    <trip id="veh106" type="veh_passenger" depart="286.69" departLane="best" from="24914992#1" to="29177662#1"/>
    <trip id="veh107" type="veh_passenger" depart="289.40" departLane="best" from="169999355#0" to="24993933#2"/>
    <trip id="veh108" type="veh_passenger" depart="292.10" departLane="best" from="234463931#5" to="705182550"/>
    <trip id="veh109" type="veh_passenger" depart="294.81" departLane="best" from="-35578576#1" to="340498982#9"/>
    <trip id="veh110" type="veh_passenger" depart="297.51" departLane="best" from="-4610472#1" to="188044903#0"/>
    <trip id="veh112" type="veh_passenger" depart="302.92" departLane="best" from="100405009#3" to="43156728#2"/>
    <trip id="veh113" type="veh_passenger" depart="305.63" departLane="best" from="-176043807#0" to="202156991#1"/>
    <trip id="veh114" type="veh_passenger" depart="308.33" departLane="best" from="84960597#0" to="840860363#1"/>
    <trip id="veh115" type="veh_passenger" depart="311.04" departLane="best" departSpeed="max" from="-176043807#3" to="-4611696#0"/>
    <trip id="veh116" type="veh_passenger" depart="313.74" departLane="best" departSpeed="max" from="-4790825#2" to="694626562"/>
    <trip id="veh117" type="veh_passenger" depart="316.44" departLane="best" from="490365295#1" to="51167934#4"/>
    <trip id="veh118" type="veh_passenger" depart="319.15" departLane="best" departSpeed="max" from="153698402" to="-310177222#3"/>
    <trip id="veh119" type="veh_passenger" depart="321.85" departLane="best" from="4612968#0" to="33301683"/>
    <trip id="veh120" type="veh_passenger" depart="324.56" departLane="best" from="28016312#0" to="830728708#4"/>
    <trip id="veh121" type="veh_passenger" depart="327.26" departLane="best" from="301241681#4" to="-111833185#0"/>
    <trip id="veh123" type="veh_passenger" depart="332.67" departLane="best" from="-24241797#3" to="-24242882#3"/>
    <trip id="veh124" type="veh_passenger" depart="335.38" departLane="best" from="-202817674#2" to="246044848"/>
    <trip id="veh125" type="veh_passenger" depart="338.08" departLane="best" departSpeed="max" from="-493008124" to="289966097"/>
    <trip id="veh126" type="veh_passenger" depart="340.79" departLane="best" from="340498976#7" to="-4588217#2"/>
    <trip id="veh127" type="veh_passenger" depart="343.49" departLane="best" from="19801548#2" to="60333311#1"/>
    <trip id="veh128" type="veh_passenger" depart="346.20" departLane="best" from="4612981#1" to="-202817674#2"/>
    <trip id="veh129" type="veh_passenger" depart="348.90" departLane="best" from="171826985#1" to="100405009#4"/>
    <trip id="veh132" type="veh_passenger" depart="357.01" departLane="best" from="370359204#2" to="246044848"/>
    <trip id="veh134" type="veh_passenger" depart="362.42" departLane="best" departSpeed="max" from="-176043807#3" to="534588621#0"/>
    <trip id="veh135" type="veh_passenger" depart="365.13" departLane="best" from="54781811#1" to="24540242#1"/>
    <trip id="veh136" type="veh_passenger" depart="367.83" departLane="best" from="-84960595" to="55741054"/>
    <trip id="veh138" type="veh_passenger" depart="373.24" departLane="best" from="541763975" to="-4610524"/>
    <trip id="veh139" type="veh_passenger" depart="375.95" departLane="best" from="-4612965" to="-234463931#0"/>
    <trip id="veh140" type="veh_passenger" depart="378.65" departLane="best" from="437325051#1" to="534588621#1"/>
    <trip id="veh141" type="veh_passenger" depart="381.36" departLane="best" from="-24993933#4" to="68647306#2"/>
    <trip id="veh143" type="veh_passenger" depart="386.77" departLane="best" from="4610600" to="523630409"/>
    <trip id="veh144" type="veh_passenger" depart="389.47" departLane="best" from="-132600840#0" to="370359204#0"/>
    <trip id="veh146" type="veh_passenger" depart="394.88" departLane="best" from="4610362#8" to="4790825#1"/>
    <trip id="veh147" type="veh_passenger" depart="397.58" departLane="best" from="4610600" to="-84960595"/>
    <trip id="veh148" type="veh_passenger" depart="400.29" departLane="best" from="4412868" to="-23809670#2"/>
    <trip id="veh149" type="veh_passenger" depart="402.99" departLane="best" departSpeed="max" from="-4396823" to="4612961#1"/>
    <trip id="veh150" type="veh_passenger" depart="405.70" departLane="best" from="19002403#1" to="120675240#4"/>
    <trip id="veh152" type="veh_passenger" depart="411.11" departLane="best" from="-131505631#1" to="-437325047#5"/>
    <trip id="veh153" type="veh_passenger" depart="413.81" departLane="best" from="111833185#1" to="4790825#1"/>
    <trip id="veh154" type="veh_passenger" depart="416.52" departLane="best" from="82649618" to="109819340#2"/>
    <trip id="veh155" type="veh_passenger" depart="419.22" departLane="best" from="292429062#2" to="188046016#0"/>
    <trip id="veh156" type="veh_passenger" depart="421.93" departLane="best" departSpeed="max" from="830728708#0" to="24243052#3"/>
    <trip id="veh157" type="veh_passenger" depart="424.63" departLane="best" from="728838409#0" to="-24242882#3"/>
    <trip id="veh158" type="veh_passenger" depart="427.34" departLane="best" from="82658671#1" to="-43156728#0"/>
    <trip id="veh160" type="veh_passenger" depart="432.74" departLane="best" from="-222328410" to="195401013#2"/>
    <trip id="veh161" type="veh_passenger" depart="435.45" departLane="best" from="344594962" to="136571494#2"/>
    <trip id="veh162" type="veh_passenger" depart="438.15" departLane="best" from="251884680" to="23851930"/>
    <trip id="veh163" type="veh_passenger" depart="440.86" departLane="best" from="15977422#0" to="24914992#1"/>
    <trip id="veh164" type="veh_passenger" depart="443.56" departLane="best" from="-4612981#1" to="340498976#5"/>
    <trip id="veh166" type="veh_passenger" depart="448.97" departLane="best" departSpeed="max" from="23851922" to="344594961"/>
    <trip id="veh167" type="veh_passenger" depart="451.68" departLane="best" from="370359204#2" to="310176513#0"/>
    <trip id="veh168" type="veh_passenger" depart="454.38" departLane="best" from="153698380#0" to="-176043794"/>
    <trip id="veh169" type="veh_passenger" depart="457.09" departLane="best" from="305153173" to="156364570#1"/>
    <trip id="veh170" type="veh_passenger" depart="459.79" departLane="best" from="100405009#2" to="465376255#2"/>
    <trip id="veh172" type="veh_passenger" depart="465.20" departLane="best" from="-84960595" to="19002363#2"/>
    <trip id="veh173" type="veh_passenger" depart="467.90" departLane="best" departSpeed="max" from="-23813206#2" to="194962398#1"/>
    <trip id="veh174" type="veh_passenger" depart="470.61" departLane="best" from="728838409#0" to="310176513#9"/>
    <trip id="veh175" type="veh_passenger" depart="473.31" departLane="best" from="54781811#0" to="29177662#1"/>
    <trip id="veh179" type="veh_passenger" depart="484.13" departLane="best" from="301241681#4" to="202156995#1"/>
    <trip id="veh180" type="veh_passenger" depart="486.84" departLane="best" departSpeed="max" from="187111590#0" to="-4611696#0"/>
    <trip id="veh181" type="veh_passenger" depart="489.54" departLane="best" from="195397561#4" to="566764344"/>
    <trip id="veh183" type="veh_passenger" depart="494.95" departLane="best" from="-194962375#1" to="23851930"/>
    <trip id="veh184" type="veh_passenger" depart="497.66" departLane="best" from="289966097" to="15971197#1"/>
    <trip id="veh185" type="veh_passenger" depart="500.36" departLane="best" departSpeed="max" from="4611696#0" to="43156728#2"/>
    <trip id="veh186" type="veh_passenger" depart="503.07" departLane="best" from="30721662#1" to="-4612970#0"/>
    <trip id="veh187" type="veh_passenger" depart="505.77" departLane="best" from="-339201177#2" to="-132600840#0"/>
    <trip id="veh188" type="veh_passenger" depart="508.47" departLane="best" from="-4611706#0" to="225400578#1"/>
    <trip id="veh189" type="veh_passenger" depart="511.18" departLane="best" from="4613308#2" to="-176043807#0"/>
    <trip id="veh191" type="veh_passenger" depart="516.59" departLane="best" from="-31313667#2" to="316092515"/>
    <trip id="veh192" type="veh_passenger" depart="519.29" departLane="best" from="202156995#0" to="-55741054"/>
    <trip id="veh193" type="veh_passenger" depart="522.00" departLane="best" from="301733776" to="-111833185#0"/>
    <trip id="veh194" type="veh_passenger" depart="524.70" departLane="best" departSpeed="max" from="389705411#0" to="454285423#1"/>
    <trip id="veh195" type="veh_passenger" depart="527.41" departLane="best" from="-202817674#2" to="195104960#1"/>
    <trip id="veh196" type="veh_passenger" depart="530.11" departLane="best" from="23121445#5" to="-168937986#4"/>
    <trip id="veh197" type="veh_passenger" depart="532.82" departLane="best" from="-4612965" to="465398529#1"/>
    <trip id="veh198" type="veh_passenger" depart="535.52" departLane="best" from="19002363#1" to="4611693#2"/>
    <trip id="veh199" type="veh_passenger" depart="538.23" departLane="best" from="30720544#1" to="830728708#5"/>
    <trip id="veh200" type="veh_passenger" depart="540.93" departLane="best" from="24992424#0" to="756306892"/>
    <trip id="veh201" type="veh_passenger" depart="543.64" departLane="best" from="54048862#0" to="29177662#1"/>
    <trip id="veh202" type="veh_passenger" depart="546.34" departLane="best" from="340498982#0" to="23813206#2"/>
    <trip id="veh204" type="veh_passenger" depart="551.75" departLane="best" from="195401006" to="-751595930"/>
    <trip id="veh205" type="veh_passenger" depart="554.45" departLane="best" departSpeed="max" from="-4611706#1" to="301241681#1"/>
    <trip id="veh206" type="veh_passenger" depart="557.16" departLane="best" from="43156728#2" to="24241762#1"/>
    <trip id="veh207" type="veh_passenger" depart="559.86" departLane="best" from="-188914559" to="111251382#3"/>
    <trip id="veh208" type="veh_passenger" depart="562.57" departLane="best" departSpeed="max" from="-493008124" to="153698390#1"/>
    <trip id="veh209" type="veh_passenger" depart="565.27" departLane="best" departSpeed="max" from="23851922" to="-25302636#1"/>
    <trip id="veh211" type="veh_passenger" depart="570.68" departLane="best" from="313195075" to="-173197451#0"/>
    <trip id="veh212" type="veh_passenger" depart="573.39" departLane="best" from="169195795#0" to="24243107#2"/>
    <trip id="veh213" type="veh_passenger" depart="576.09" departLane="best" from="169195795#7" to="-4610472#0"/>
    <trip id="veh214" type="veh_passenger" depart="578.80" departLane="best" from="171826984#2" to="60333311#1"/>
    <trip id="veh215" type="veh_passenger" depart="581.50" departLane="best" departSpeed="max" from="24914141#0" to="316092515"/>
    <trip id="veh216" type="veh_passenger" depart="584.21" departLane="best" departSpeed="max" from="465376243#0" to="4402037#1"/>
    <trip id="veh217" type="veh_passenger" depart="586.91" departLane="best" from="156364570#2" to="-111833185#0"/>
    <trip id="veh218" type="veh_passenger" depart="589.61" departLane="best" departSpeed="max" from="131505631#0" to="43231842#0"/>
    <trip id="veh219" type="veh_passenger" depart="592.32" departLane="best" from="461526153" to="81112790#1"/>
    <trip id="veh220" type="veh_passenger" depart="595.02" departLane="best" from="169999355#0" to="415280722"/>
    <trip id="veh221" type="veh_passenger" depart="597.73" departLane="best" departSpeed="max" from="23851922" to="289830064"/>
    <trip id="veh222" type="veh_passenger" depart="600.43" departLane="best" departSpeed="max" from="-4396823" to="-4612965"/>
    <trip id="veh223" type="veh_passenger" depart="603.14" departLane="best" departSpeed="max" from="187111590#0" to="-136571494#4"/>
    <trip id="veh224" type="veh_passenger" depart="605.84" departLane="best" from="112128419#2" to="310176513#9"/>
    <trip id="veh225" type="veh_passenger" depart="608.55" departLane="best" from="168943639#1" to="-339201177#1"/>
    <trip id="veh226" type="veh_passenger" depart="611.25" departLane="best" from="194962375#1" to="-24990040"/>
    <trip id="veh227" type="veh_passenger" depart="613.96" departLane="best" departSpeed="max" from="288726033#0" to="-136571494#1"/>
    <trip id="veh228" type="veh_passenger" depart="616.66" departLane="best" departSpeed="max" from="165415464#0" to="24913304#2"/>
    <trip id="veh229" type="veh_passenger" depart="619.37" departLane="best" from="-136571494#1" to="301733776"/>
    <trip id="veh230" type="veh_passenger" depart="622.07" departLane="best" from="-24242882#1" to="202156994#0"/>
    <trip id="veh231" type="veh_passenger" depart="624.77" departLane="best" from="-168937986#4" to="171826985#0"/>
    <trip id="veh232" type="veh_passenger" depart="627.48" departLane="best" from="-43231842#0" to="156364566#1"/>
    <trip id="veh233" type="veh_passenger" depart="630.18" departLane="best" departSpeed="max" from="43156728#0" to="171826985#0"/>
    <trip id="veh234" type="veh_passenger" depart="632.89" departLane="best" from="389705411#1" to="4613293"/>
    <trip id="veh235" type="veh_passenger" depart="635.59" departLane="best" from="-4612968#3" to="-195104956#0"/>
    <trip id="veh236" type="veh_passenger" depart="638.30" departLane="best" from="301241681#1" to="4610355#2"/>
    <trip id="veh237" type="veh_passenger" depart="641.00" departLane="best" from="301241681#3" to="43231842#1"/>
    <trip id="veh238" type="veh_passenger" depart="643.71" departLane="best" from="751595930" to="-4412868"/>
    <trip id="veh239" type="veh_passenger" depart="646.41" departLane="best" from="-122820534#1" to="-310176513#3"/>
    <trip id="veh240" type="veh_passenger" depart="649.12" departLane="best" departSpeed="max" from="-23813206#2" to="309479676"/>
    <trip id="veh241" type="veh_passenger" depart="651.82" departLane="best" from="24243107#2" to="-4611696#4"/>
    <trip id="veh242" type="veh_passenger" depart="654.53" departLane="best" from="312514710#0" to="4403559#0"/>
    <trip id="veh243" type="veh_passenger" depart="657.23" departLane="best" from="-28251222#0" to="289966281"/>
    <trip id="veh244" type="veh_passenger" depart="659.94" departLane="best" departSpeed="max" from="389705411#0" to="-24242882#2"/>
    <trip id="veh245" type="veh_passenger" depart="662.64" departLane="best" departSpeed="max" from="4611696#0" to="82649618"/>
    <trip id="veh246" type="veh_passenger" depart="665.34" departLane="best" from="-202817674#3" to="-132600840#1"/>
    <trip id="veh247" type="veh_passenger" depart="668.05" departLane="best" from="100405009#1" to="310176513#9"/>
    <trip id="veh248" type="veh_passenger" depart="670.75" departLane="best" from="819027709#0" to="188044903#0"/>
    <trip id="veh249" type="veh_passenger" depart="673.46" departLane="best" from="340498976#1" to="-19002363#3"/>
    <trip id="veh250" type="veh_passenger" depart="676.16" departLane="best" departSpeed="max" from="310177222#0" to="292429063#1"/>
    <trip id="veh252" type="veh_passenger" depart="681.57" departLane="best" from="4613308#3" to="28251222#1"/>
    <trip id="veh254" type="veh_passenger" depart="686.98" departLane="best" from="4402037#0" to="168940071#1"/>
    <trip id="veh256" type="veh_passenger" depart="692.39" departLane="best" from="4613308#2" to="4612968#3"/>
    <trip id="veh257" type="veh_passenger" depart="695.10" departLane="best" departSpeed="max" from="-202156991#2" to="82639457#1"/>
    <trip id="veh258" type="veh_passenger" depart="697.80" departLane="best" from="289966845" to="4613292#0"/>
    <trip id="veh259" type="veh_passenger" depart="700.51" departLane="best" from="316092515" to="195401013#3"/>
    <trip id="veh261" type="veh_passenger" depart="705.91" departLane="best" departSpeed="max" from="-493008124" to="4611706#0"/>
    <trip id="veh262" type="veh_passenger" depart="708.62" departLane="best" departSpeed="max" from="23851922" to="23121445#1"/>
    <trip id="veh263" type="veh_passenger" depart="711.32" departLane="best" departSpeed="max" from="187111590#0" to="35578559"/>
    <trip id="veh264" type="veh_passenger" depart="714.03" departLane="best" from="-492340367#0" to="465398529#1"/>
    <trip id="veh265" type="veh_passenger" depart="716.73" departLane="best" from="4612961#1" to="-195397561#0"/>
    <trip id="veh266" type="veh_passenger" depart="719.44" departLane="best" from="492340367#0" to="-55741054"/>
    <trip id="veh267" type="veh_passenger" depart="722.14" departLane="best" from="194069450#0" to="289967595#0"/>
    <trip id="veh268" type="veh_passenger" depart="724.85" departLane="best" from="156364570#1" to="-136571494#3"/>
    <trip id="veh269" type="veh_passenger" depart="727.55" departLane="best" from="4613308#3" to="-43156728#0"/>
    <trip id="veh270" type="veh_passenger" depart="730.26" departLane="best" from="-43231842#1" to="4610479#1"/>
    <trip id="veh271" type="veh_passenger" depart="732.96" departLane="best" from="120675240#0" to="51167934#4"/>
    <trip id="veh272" type="veh_passenger" depart="735.67" departLane="best" from="312514710#0" to="100405009#4"/>
    <trip id="veh273" type="veh_passenger" depart="738.37" departLane="best" from="-111833186#1" to="751602168"/>
    <trip id="veh274" type="veh_passenger" depart="741.07" departLane="best" from="19801548#2" to="437325047#2"/>
    <trip id="veh275" type="veh_passenger" depart="743.78" departLane="best" departSpeed="max" from="310177222#0" to="305093247#0"/>