<?xml version="1.0" encoding="UTF-8"?>
<!-- generated on 2020-09-27 12:43:58.008862 by osmWebWizard.py v1_7_0+0000-714814baed
  options: 
-->
<routes xmlns:xsi="http://www.w3.org/2001/XMLSchema-instance" xsi:noNamespaceSchemaLocation="http://sumo.dlr.de/xsd/routes_file.xsd">
    <vType id="ped_pedestrian" vClass="pedestrian"/>
    <person id="ped0" depart="0.00" type="ped_pedestrian">
        <walk from="377634146" to="-168940071#2"/>
    </person>
    <person id="ped1" depart="2.15" type="ped_pedestrian">
        <walk from="19002363#4" to="163870539#1"/>
    </person>
    <person id="ped2" depart="4.30" type="ped_pedestrian">
        <walk from="4612968#2" to="424344281"/>
    </person>
    <person id="ped3" depart="6.44" type="ped_pedestrian">
        <walk from="68647306#4" to="-330840136"/>
    </person>
    <person id="ped4" depart="8.59" type="ped_pedestrian">
        <walk from="272757317#1" to="-170370361#3"/>
    </person>
    <person id="ped5" depart="10.74" type="ped_pedestrian">
        <walk from="15968749#1" to="301241681#3"/>
    </person>
    <person id="ped6" depart="12.89" type="ped_pedestrian">
        <walk from="-168942727#3" to="133885749#1"/>
    </person>
    <person id="ped7" depart="15.03" type="ped_pedestrian">
        <walk from="380240683" to="31959081#0"/>
    </person>
    <person id="ped8" depart="17.18" type="ped_pedestrian">
        <walk from="15971197#0" to="344595605#0"/>
    </person>
    <person id="ped9" depart="19.33" type="ped_pedestrian">
        <walk from="52348720#1" to="-11483007#2"/>
    </person>
    <person id="ped10" depart="21.48" type="ped_pedestrian">
        <walk from="518508119#1" to="437500503"/>
    </person>
    <person id="ped11" depart="23.62" type="ped_pedestrian">
        <walk from="237520773#4" to="-780327567"/>
    </person>
    <person id="ped12" depart="25.77" type="ped_pedestrian">
        <walk from="818510438" to="235503139#0"/>
    </person>
    <person id="ped13" depart="27.92" type="ped_pedestrian">
        <walk from="-35578576#1" to="-387892378"/>
    </person>
    <person id="ped14" depart="30.07" type="ped_pedestrian">
        <walk from="570058782" to="346212660#0"/>
    </person>
    <person id="ped15" depart="32.22" type="ped_pedestrian">
        <walk from="51912365#1" to="461165665#4"/>
    </person>
    <person id="ped16" depart="34.36" type="ped_pedestrian">
        <walk from="312532334#2" to="832173068#5"/>
    </person>
    <person id="ped17" depart="36.51" type="ped_pedestrian">
        <walk from="254339586" to="327519011#0"/>
    </person>
    <person id="ped18" depart="38.66" type="ped_pedestrian">
        <walk from="556076653" to="373292148"/>
    </person>
    <person id="ped19" depart="40.81" type="ped_pedestrian">
        <walk from="59287095#1" to="339201224"/>
    </person>
    <person id="ped20" depart="42.95" type="ped_pedestrian">
        <walk from="440946432" to="-195411605#0"/>
    </person>
    <person id="ped21" depart="45.10" type="ped_pedestrian">
        <walk from="165832574#0" to="195401013#3"/>
    </person>
    <person id="ped22" depart="47.25" type="ped_pedestrian">
        <walk from="-310177222#3" to="168942727#0"/>
    </person>
    <person id="ped23" depart="49.40" type="ped_pedestrian">
        <walk from="-43231842#2" to="194073677#2"/>
    </person>
    <person id="ped24" depart="51.54" type="ped_pedestrian">
        <walk from="377494316#0" to="246044848"/>
    </person>
    <person id="ped25" depart="53.69" type="ped_pedestrian">
        <walk from="24993933#2" to="139877314#1"/>
    </person>
    <person id="ped26" depart="55.84" type="ped_pedestrian">
        <walk from="176043807#1" to="751595929#1"/>
    </person>
    <person id="ped27" depart="57.99" type="ped_pedestrian">
        <walk from="379904843#2" to="346229515#3"/>
    </person>
    <person id="ped28" depart="60.14" type="ped_pedestrian">
        <walk from="104991252#2" to="461165665#2"/>
    </person>
    <person id="ped29" depart="62.28" type="ped_pedestrian">
        <walk from="100405009#1" to="254339590#2"/>
    </person>
    <person id="ped30" depart="64.43" type="ped_pedestrian">
        <walk from="88462834" to="377634147#1"/>
    </person>
    <person id="ped31" depart="66.58" type="ped_pedestrian">
        <walk from="330840125#1" to="43164692"/>
    </person>
    <person id="ped32" depart="68.73" type="ped_pedestrian">
        <walk from="566764345" to="47986664#2"/>
    </person>
    <person id="ped33" depart="70.87" type="ped_pedestrian">
        <walk from="165832576" to="-176043794"/>
    </person>
    <person id="ped34" depart="73.02" type="ped_pedestrian">
        <walk from="202817674#3" to="176043824#1"/>
    </person>
    <person id="ped35" depart="75.17" type="ped_pedestrian">
        <walk from="150634670#2" to="780327577"/>
    </person>
    <person id="ped36" depart="77.32" type="ped_pedestrian">
        <walk from="6228081" to="202162471"/>
    </person>
    <person id="ped37" depart="79.47" type="ped_pedestrian">
        <walk from="384309031#1" to="260138639#0"/>
    </person>
    <person id="ped38" depart="81.61" type="ped_pedestrian">
        <walk from="699041689" to="272795489#0"/>
    </person>
    <person id="ped39" depart="83.76" type="ped_pedestrian">
        <walk from="175885747#0" to="170517259"/>
    </person>
    <person id="ped40" depart="85.91" type="ped_pedestrian">
        <walk from="335043659" to="175885743"/>
    </person>
    <person id="ped41" depart="88.06" type="ped_pedestrian">
        <walk from="266572297#1" to="15968752"/>
    </person>
    <person id="ped42" depart="90.20" type="ped_pedestrian">
        <walk from="88462849" to="304517627#3"/>
    </person>
    <person id="ped43" depart="92.35" type="ped_pedestrian">
        <walk from="-340498976#9" to="-202156991#2"/>
    </person>
    <person id="ped44" depart="94.50" type="ped_pedestrian">
        <walk from="-4588217#2" to="375901774#2"/>
    </person>
    <person id="ped45" depart="96.65" type="ped_pedestrian">
        <walk from="504412400" to="272757318#0"/>
    </person>
    <person id="ped46" depart="98.79" type="ped_pedestrian">
        <walk from="-24992424#5" to="254339591#6"/>
    </person>
    <person id="ped47" depart="100.94" type="ped_pedestrian">
        <walk from="88462842#9" to="312138362#0"/>
    </person>
    <person id="ped48" depart="103.09" type="ped_pedestrian">
        <walk from="832173066#1" to="59286500#3"/>
    </person>
    <person id="ped49" depart="105.24" type="ped_pedestrian">
        <walk from="-132600840#1" to="4610355#2"/>
    </person>
    <person id="ped50" depart="107.39" type="ped_pedestrian">
        <walk from="428486923" to="312711508#2"/>
    </person>
    <person id="ped51" depart="109.53" type="ped_pedestrian">
        <walk from="176043807#0" to="378150066"/>
    </person>
    <person id="ped52" depart="111.68" type="ped_pedestrian">
        <walk from="-4610362#1" to="272757341#0"/>
    </person>
    <person id="ped53" depart="113.83" type="ped_pedestrian">
        <walk from="272780760" to="803471190#0"/>
    </person>
    <person id="ped54" depart="115.98" type="ped_pedestrian">
        <walk from="6227658#2" to="175885745"/>
    </person>
    <person id="ped55" depart="118.12" type="ped_pedestrian">
        <walk from="289966281" to="111833186#2"/>
    </person>
    <person id="ped56" depart="120.27" type="ped_pedestrian">
        <walk from="202156998#3" to="377634145#0"/>
    </person>
    <person id="ped57" depart="122.42" type="ped_pedestrian">
        <walk from="346229515#2" to="-711640736#2"/>
    </person>
    <person id="ped58" depart="124.57" type="ped_pedestrian">
        <walk from="473149637" to="313194359#1"/>
    </person>
    <person id="ped59" depart="126.71" type="ped_pedestrian">
        <walk from="48164817#2" to="312176585#2"/>
    </person>
    <person id="ped60" depart="128.86" type="ped_pedestrian">
        <walk from="-102408133#1" to="225400609#6"/>
    </person>
    <person id="ped61" depart="131.01" type="ped_pedestrian">
        <walk from="627355695#1" to="557076775"/>
    </person>
    <person id="ped62" depart="133.16" type="ped_pedestrian">
        <walk from="202157023#0" to="-24242882#1"/>
    </person>
    <person id="ped63" depart="135.31" type="ped_pedestrian">
        <walk from="627355687" to="780514920#0"/>
    </person>
    <person id="ped64" depart="137.45" type="ped_pedestrian">
        <walk from="-326116286#2" to="275008387#1"/>
    </person>
    <person id="ped65" depart="139.60" type="ped_pedestrian">
        <walk from="-284514068" to="46983896"/>
    </person>
    <person id="ped66" depart="141.75" type="ped_pedestrian">
        <walk from="474154190#1" to="-4790825#2"/>
    </person>
    <person id="ped67" depart="143.90" type="ped_pedestrian">
        <walk from="274513566#0" to="327519007"/>
    </person>
    <person id="ped68" depart="146.04" type="ped_pedestrian">
        <walk from="175885747#1" to="618992346"/>
    </person>
    <person id="ped69" depart="148.19" type="ped_pedestrian">
        <walk from="272757319#1" to="153698394#1"/>
    </person>
    <person id="ped70" depart="150.34" type="ped_pedestrian">
        <walk from="313193879#1" to="461165665#5"/>
    </person>
    <person id="ped71" depart="152.49" type="ped_pedestrian">
        <walk from="133895404" to="202157029#1"/>
    </person>
    <person id="ped72" depart="154.63" type="ped_pedestrian">
        <walk from="272757346#0" to="310010117#0"/>
    </person>
    <person id="ped73" depart="156.78" type="ped_pedestrian">
        <walk from="-4612968#0" to="164874303"/>
    </person>
    <person id="ped74" depart="158.93" type="ped_pedestrian">
        <walk from="236092221#1" to="344595599"/>
    </person>
    <person id="ped75" depart="161.08" type="ped_pedestrian">
        <walk from="16873017#2" to="15971197#0"/>
    </person>
    <person id="ped76" depart="163.23" type="ped_pedestrian">
        <walk from="-292429062#0" to="37679530"/>
    </person>
    <person id="ped77" depart="165.37" type="ped_pedestrian">
        <walk from="165832576" to="687804456#0"/>
    </person>
    <person id="ped78" depart="167.52" type="ped_pedestrian">
        <walk from="59286194#3" to="-29177662#1"/>
    </person>
    <person id="ped79" depart="169.67" type="ped_pedestrian">
        <walk from="169195791#2" to="397579542"/>
    </person>
    <person id="ped80" depart="171.82" type="ped_pedestrian">
        <walk from="156364570#1" to="-516398559"/>
    </person>
    <person id="ped81" depart="173.96" type="ped_pedestrian">
        <walk from="744493891" to="335703512"/>
    </person>
    <person id="ped82" depart="176.11" type="ped_pedestrian">
        <walk from="274513545" to="48524801#2"/>
    </person>
    <person id="ped83" depart="178.26" type="ped_pedestrian">
        <walk from="522374555#1" to="123264591"/>
    </person>
    <person id="ped84" depart="180.41" type="ped_pedestrian">
        <walk from="-389705415#0" to="272757336#2"/>
    </person>
    <person id="ped85" depart="182.56" type="ped_pedestrian">
        <walk from="272757320#1" to="272795503#1"/>
    </person>
    <person id="ped86" depart="184.70" type="ped_pedestrian">
        <walk from="461165665#2" to="422000253#0"/>
    </person>
    <person id="ped87" depart="186.85" type="ped_pedestrian">
        <walk from="88361597#9" to="-410310755#3"/>
    </person>
    <person id="ped88" depart="189.00" type="ped_pedestrian">
        <walk from="268940759" to="237520773#1"/>
    </person>
    <person id="ped89" depart="191.15" type="ped_pedestrian">
        <walk from="59287095#1" to="170852466"/>
    </person>
    <person id="ped90" depart="193.29" type="ped_pedestrian">
        <walk from="122820536" to="272780745#1"/>
    </person>
    <person id="ped91" depart="195.44" type="ped_pedestrian">
        <walk from="272757317#1" to="194073677#4"/>
    </person>
    <person id="ped92" depart="197.59" type="ped_pedestrian">
        <walk from="170856748#1" to="714295595#6"/>
    </person>
    <person id="ped93" depart="199.74" type="ped_pedestrian">
        <walk from="272780724" to="59287095#0"/>
    </person>
    <person id="ped94" depart="201.88" type="ped_pedestrian">
        <walk from="327519008#1" to="-225400578#2"/>
    </person>
    <person id="ped95" depart="204.03" type="ped_pedestrian">
        <walk from="88462861#0" to="564139999#3"/>
    </person>
    <person id="ped96" depart="206.18" type="ped_pedestrian">
        <walk from="832173062#1" to="72157175"/>
    </person>
    <person id="ped97" depart="208.33" type="ped_pedestrian">
        <walk from="574993711" to="100950875#1"/>
    </person>
    <person id="ped98" depart="210.48" type="ped_pedestrian">
        <walk from="275008387#0" to="156364566#1"/>
    </person>
    <person id="ped99" depart="212.62" type="ped_pedestrian">
        <walk from="26733828#0" to="-24242882#3"/>
    </person>
    <person id="ped100" depart="214.77" type="ped_pedestrian">
        <walk from="175885747#3" to="48524700"/>
    </person>
    <person id="ped101" depart="216.92" type="ped_pedestrian">
        <walk from="272795476" to="272757319#1"/>
    </person>
    <person id="ped102" depart="219.07" type="ped_pedestrian">
        <walk from="819027709#0" to="88462842#7"/>
    </person>
    <person id="ped103" depart="221.21" type="ped_pedestrian">
        <walk from="33036326" to="4588217#2"/>
    </person>
    <person id="ped104" depart="223.36" type="ped_pedestrian">
        <walk from="-751595928#1" to="202156995#1"/>
    </person>
    <person id="ped105" depart="225.51" type="ped_pedestrian">
        <walk from="832173062#0" to="339201239#1"/>
    </person>
    <person id="ped106" depart="227.66" type="ped_pedestrian">
        <walk from="314433242" to="46517262#0"/>
    </person>
    <person id="ped107" depart="229.80" type="ped_pedestrian">
        <walk from="-24241797#2" to="340498988#0"/>
    </person>
    <person id="ped108" depart="231.95" type="ped_pedestrian">
        <walk from="292429063#0" to="577274550"/>
    </person>
    <person id="ped109" depart="234.10" type="ped_pedestrian">
        <walk from="-796446835#2" to="82639450"/>
    </person>
    <person id="ped110" depart="236.25" type="ped_pedestrian">
        <walk from="-31112379#0" to="114133910#2"/>
    </person>
    <person id="ped111" depart="238.40" type="ped_pedestrian">
        <walk from="346206368#3" to="422002325"/>
    </person>
    <person id="ped112" depart="240.54" type="ped_pedestrian">
        <walk from="168943640#0" to="-4611706#0"/>
    </person>
    <person id="ped113" depart="242.69" type="ped_pedestrian">
        <walk from="677412323#0" to="170370361#3"/>
    </person>
    <person id="ped114" depart="244.84" type="ped_pedestrian">
        <walk from="346206368#1" to="373292157#1"/>
    </person>
    <person id="ped115" depart="246.99" type="ped_pedestrian">
        <walk from="272757309" to="340498982#8"/>
    </person>
    <person id="ped116" depart="249.13" type="ped_pedestrian">
        <walk from="136003366" to="454285423#3"/>
    </person>
    <person id="ped117" depart="251.28" type="ped_pedestrian">
        <walk from="169195795#0" to="260138639#0"/>
    </person>
    <person id="ped118" depart="253.43" type="ped_pedestrian">
        <walk from="409506039#1" to="202156999#2"/>
    </person>
    <person id="ped119" depart="255.58" type="ped_pedestrian">
        <walk from="202817676" to="465376241"/>
    </person>
    <person id="ped120" depart="257.72" type="ped_pedestrian">
        <walk from="-292429063#1" to="272795487#1"/>
    </person>
    <person id="ped121" depart="259.87" type="ped_pedestrian">
        <walk from="88462853" to="88462842#9"/>
    </person>
    <person id="ped122" depart="262.02" type="ped_pedestrian">
        <walk from="-30720544#0" to="156364553#1"/>
    </person>
    <person id="ped123" depart="264.17" type="ped_pedestrian">
        <walk from="175885747#3" to="738261262#4"/>
    </person>
    <person id="ped124" depart="266.32" type="ped_pedestrian">
        <walk from="628151236" to="627514142#1"/>
    </person>
    <person id="ped125" depart="268.46" type="ped_pedestrian">
        <walk from="24993933#0" to="-797119355"/>
    </person>
    <person id="ped126" depart="270.61" type="ped_pedestrian">
        <walk from="561049080" to="440946429"/>
    </person>
    <person id="ped127" depart="272.76" type="ped_pedestrian">
        <walk from="38347139" to="-122820534#1"/>
    </person>
    <person id="ped128" depart="274.91" type="ped_pedestrian">
        <walk from="53609869#4" to="202156999#0"/>
    </person>
    <person id="ped129" depart="277.05" type="ped_pedestrian">
        <walk from="388702047#0" to="757944648"/>
    </person>
    <person id="ped130" depart="279.20" type="ped_pedestrian">
        <walk from="-52348720#0" to="-4610476#2"/>
    </person>
    <person id="ped131" depart="281.35" type="ped_pedestrian">
        <walk from="-45235049#1" to="327519012#1"/>
    </person>
    <person id="ped132" depart="283.50" type="ped_pedestrian">
        <walk from="188046016#0" to="346212661"/>
    </person>
    <person id="ped133" depart="285.65" type="ped_pedestrian">
        <walk from="4570580" to="134021300#4"/>
    </person>
    <person id="ped134" depart="287.79" type="ped_pedestrian">
        <walk from="377110622#4" to="175885746#1"/>
    </person>
    <person id="ped135" depart="289.94" type="ped_pedestrian">
        <walk from="280007139#0" to="687804456#0"/>
    </person>
    <person id="ped136" depart="292.09" type="ped_pedestrian">
        <walk from="570058778" to="-34848160#1"/>
    </person>
    <person id="ped137" depart="294.24" type="ped_pedestrian">
        <walk from="272757320#1" to="194069449"/>
    </person>
    <person id="ped138" depart="296.38" type="ped_pedestrian">
        <walk from="-111833185#0" to="4773027#1"/>
    </person>
    <person id="ped139" depart="298.53" type="ped_pedestrian">
        <walk from="377634139" to="175506752"/>
    </person>
    <person id="ped140" depart="300.68" type="ped_pedestrian">
        <walk from="272757330" to="-131505631#1"/>
    </person>
    <person id="ped141" depart="302.83" type="ped_pedestrian">
        <walk from="-30721660#5" to="643101295#0"/>
    </person>
    <person id="ped142" depart="304.97" type="ped_pedestrian">
        <walk from="687804453#1" to="31959082"/>
    </person>
    <person id="ped143" depart="307.12" type="ped_pedestrian">
        <walk from="561816965" to="340498982#2"/>
    </person>
    <person id="ped144" depart="309.27" type="ped_pedestrian">
        <walk from="-628330901#1" to="-474154200"/>
    </person>
    <person id="ped145" depart="311.42" type="ped_pedestrian">
        <walk from="202157024#1" to="687752793#0"/>
    </person>
    <person id="ped146" depart="313.57" type="ped_pedestrian">
        <walk from="51167566" to="59286500#3"/>
    </person>
    <person id="ped147" depart="315.71" type="ped_pedestrian">
        <walk from="687752792" to="143201761"/>
    </person>
    <person id="ped148" depart="317.86" type="ped_pedestrian">
        <walk from="170855334" to="-437325048#1"/>
    </person>
    <person id="ped149" depart="320.01" type="ped_pedestrian">
        <walk from="483624528" to="660510097"/>
    </person>
    <person id="ped150" depart="322.16" type="ped_pedestrian">
        <walk from="272757261" to="374734393#0"/>
    </person>
    <person id="ped151" depart="324.30" type="ped_pedestrian">
        <walk from="-751595928#1" to="729183912#1"/>
    </person>
    <person id="ped152" depart="326.45" type="ped_pedestrian">
        <walk from="60333309#0" to="83517339"/>
    </person>
    <person id="ped153" depart="328.60" type="ped_pedestrian">
        <walk from="52349370#0" to="628330901#1"/>
    </person>
    <person id="ped154" depart="330.75" type="ped_pedestrian">
        <walk from="-168940071#1" to="4612968#2"/>
    </person>
    <person id="ped155" depart="332.89" type="ped_pedestrian">
        <walk from="23121445#1" to="729397317"/>
    </person>
    <person id="ped156" depart="335.04" type="ped_pedestrian">
        <walk from="51234180#0" to="603204007#2"/>
    </person>
    <person id="ped157" depart="337.19" type="ped_pedestrian">
        <walk from="52349370#0" to="176043807#0"/>
    </person>
    <person id="ped158" depart="339.34" type="ped_pedestrian">
        <walk from="492027392#0" to="-454285423#3"/>
    </person>
    <person id="ped159" depart="341.49" type="ped_pedestrian">
        <walk from="616804220#1" to="59286191"/>
    </person>
    <person id="ped160" depart="343.63" type="ped_pedestrian">
        <walk from="163368220#4" to="53609869#2"/>
    </person>
    <person id="ped161" depart="345.78" type="ped_pedestrian">
        <walk from="272795493" to="202157018#0"/>
    </person>
    <person id="ped162" depart="347.93" type="ped_pedestrian">
        <walk from="51167562#1" to="165415464#0"/>
    </person>
    <person id="ped163" depart="350.08" type="ped_pedestrian">
        <walk from="-168937986#3" to="131611527#1"/>
    </person>
    <person id="ped164" depart="352.22" type="ped_pedestrian">
        <walk from="230015279" to="603204892"/>
    </person>
    <person id="ped165" depart="354.37" type="ped_pedestrian">
        <walk from="828816763" to="194159765#1"/>
    </person>
    <person id="ped166" depart="356.52" type="ped_pedestrian">
        <walk from="378150067#1" to="266572297#2"/>
    </person>
    <person id="ped167" depart="358.67" type="ped_pedestrian">
        <walk from="88361597#10" to="312532334#2"/>
    </person>
    <person id="ped168" depart="360.81" type="ped_pedestrian">
        <walk from="757944649" to="-4610476#2"/>
    </person>
    <person id="ped169" depart="362.96" type="ped_pedestrian">
        <walk from="82654050#1" to="175885747#4"/>
    </person>
    <person id="ped170" depart="365.11" type="ped_pedestrian">
        <walk from="-454285423#4" to="272757341#0"/>
    </person>
    <person id="ped171" depart="367.26" type="ped_pedestrian">
        <walk from="461165665#0" to="202157031#2"/>
    </person>
    <person id="ped172" depart="369.41" type="ped_pedestrian">
        <walk from="346213312#2" to="305153173"/>
    </person>
    <person id="ped173" depart="371.55" type="ped_pedestrian">
        <walk from="254523873" to="339201217#1"/>
    </person>
    <person id="ped174" depart="373.70" type="ped_pedestrian">
        <walk from="171829093" to="442577417#4"/>
    </person>
    <person id="ped175" depart="375.85" type="ped_pedestrian">
        <walk from="-109819340#1" to="72157169"/>
    </person>
    <person id="ped176" depart="378.00" type="ped_pedestrian">
        <walk from="31313667#2" to="460115469"/>
    </person>
    <person id="ped177" depart="380.14" type="ped_pedestrian">
        <walk from="4613306#0" to="398956070"/>
    </person>
    <person id="ped178" depart="382.29" type="ped_pedestrian">
        <walk from="246044843#0" to="-285825378#0"/>
    </person>
    <person id="ped179" depart="384.44" type="ped_pedestrian">
        <walk from="388702047#2" to="23013165#1"/>
    </person>
    <person id="ped180" depart="386.59" type="ped_pedestrian">
        <walk from="202157031#3" to="570058784"/>
    </person>
    <person id="ped181" depart="388.73" type="ped_pedestrian">
        <walk from="4610351#1" to="202157002#0"/>
    </person>
    <person id="ped182" depart="390.88" type="ped_pedestrian">
        <walk from="202157026#2" to="272757268#0"/>
    </person>
    <person id="ped183" depart="393.03" type="ped_pedestrian">
        <walk from="268002748#1" to="202156991#1"/>
    </person>
    <person id="ped184" depart="395.18" type="ped_pedestrian">
        <walk from="-474154200" to="272757314"/>
    </person>
    <person id="ped185" depart="397.33" type="ped_pedestrian">
        <walk from="767156937" to="424344289"/>
    </person>
    <person id="ped186" depart="399.47" type="ped_pedestrian">
        <walk from="687804451#1" to="36892597#2"/>
    </person>
    <person id="ped187" depart="401.62" type="ped_pedestrian">
        <walk from="202157002#2" to="320454752"/>
    </person>
    <person id="ped188" depart="403.77" type="ped_pedestrian">
        <walk from="-102408133#1" to="195105328#1"/>
    </person>
    <person id="ped189" depart="405.92" type="ped_pedestrian">
        <walk from="272757335#1" to="339201239#3"/>
    </person>
    <person id="ped190" depart="408.06" type="ped_pedestrian">
        <walk from="384309030" to="272795500#4"/>
    </person>
    <person id="ped191" depart="410.21" type="ped_pedestrian">
        <walk from="272757350#2" to="156364566#1"/>
    </person>
    <person id="ped192" depart="412.36" type="ped_pedestrian">
        <walk from="274513551" to="687787220"/>
    </person>
    <person id="ped193" depart="414.51" type="ped_pedestrian">
        <walk from="51167565" to="104786912#3"/>
    </person>
    <person id="ped194" depart="416.66" type="ped_pedestrian">
        <walk from="-32508498" to="308669106#0"/>
    </person>
    <person id="ped195" depart="418.80" type="ped_pedestrian">
        <walk from="377110622#0" to="234463931#4"/>
    </person>
    <person id="ped196" depart="420.95" type="ped_pedestrian">
        <walk from="54048863" to="465376239"/>
    </person>
    <person id="ped197" depart="423.10" type="ped_pedestrian">
        <walk from="415280722" to="164874303"/>
    </person>
    <person id="ped198" depart="425.25" type="ped_pedestrian">
        <walk from="133885749#2" to="-168940071#0"/>
    </person>
    <person id="ped199" depart="427.39" type="ped_pedestrian">
        <walk from="170098545#5" to="274513565#1"/>
    </person>
    <person id="ped200" depart="429.54" type="ped_pedestrian">
        <walk from="574993713#2" to="-305153173"/>
    </person>
    <person id="ped201" depart="431.69" type="ped_pedestrian">
        <walk from="272757290" to="375901784"/>
    </person>
    <person id="ped202" depart="433.84" type="ped_pedestrian">
        <walk from="132460630" to="437500497"/>
    </person>
    <person id="ped203" depart="435.98" type="ped_pedestrian">
        <walk from="28120501" to="170098545#3"/>
    </person>
    <person id="ped204" depart="438.13" type="ped_pedestrian">
        <walk from="38711947#1" to="-112128825#0"/>
    </person>
    <person id="ped205" depart="440.28" type="ped_pedestrian">
        <walk from="465218218" to="4773026#0"/>
    </person>
    <person id="ped206" depart="442.43" type="ped_pedestrian">
        <walk from="-449982384#0" to="272757323#1"/>
    </person>
    <person id="ped207" depart="444.58" type="ped_pedestrian">
        <walk from="310010117#1" to="-222328410"/>
    </person>
    <person id="ped208" depart="446.72" type="ped_pedestrian">
        <walk from="170852467" to="572206291"/>
    </person>
    <person id="ped209" depart="448.87" type="ped_pedestrian">
        <walk from="272795481" to="51167934#1"/>
    </person>
    <person id="ped210" depart="451.02" type="ped_pedestrian">
        <walk from="394345496#5" to="88462826#1"/>
    </person>
    <person id="ped211" depart="453.17" type="ped_pedestrian">
        <walk from="346206368#6" to="796446835#2"/>
    </person>
    <person id="ped212" depart="455.31" type="ped_pedestrian">
        <walk from="68647306#2" to="354528932"/>
    </person>
    <person id="ped213" depart="457.46" type="ped_pedestrian">
        <walk from="460115469" to="301241483#3"/>
    </person>
    <person id="ped214" depart="459.61" type="ped_pedestrian">
        <walk from="557076770#1" to="320454752"/>
    </person>
    <person id="ped215" depart="461.76" type="ped_pedestrian">
        <walk from="687752789#2" to="46140377#3"/>
    </person>
    <person id="ped216" depart="463.90" type="ped_pedestrian">
        <walk from="274513565#0" to="173197451#6"/>
    </person>
    <person id="ped217" depart="466.05" type="ped_pedestrian">
        <walk from="170852444" to="377634141"/>
    </person>
    <person id="ped218" depart="468.20" type="ped_pedestrian">
        <walk from="474154190#1" to="310177222#1"/>
    </person>
    <person id="ped219" depart="470.35" type="ped_pedestrian">
        <walk from="374734396#4" to="19002363#3"/>
    </person>
    <person id="ped220" depart="472.50" type="ped_pedestrian">
        <walk from="-310176513#3" to="195089288#3"/>
    </person>
    <person id="ped221" depart="474.64" type="ped_pedestrian">
        <walk from="187111590#0" to="222470309#1"/>
    </person>
    <person id="ped222" depart="476.79" type="ped_pedestrian">
        <walk from="313323170#0" to="-561049078"/>
    </person>
    <person id="ped223" depart="478.94" type="ped_pedestrian">
        <walk from="168937986#5" to="437325048#0"/>
    </person>
    <person id="ped224" depart="481.09" type="ped_pedestrian">
        <walk from="442389818#2" to="-24993933#4"/>
    </person>
    <person id="ped225" depart="483.23" type="ped_pedestrian">
        <walk from="272757265" to="315245296#1"/>
    </person>
    <person id="ped226" depart="485.38" type="ped_pedestrian">
        <walk from="272757295" to="137085411#2"/>
    </person>
    <person id="ped227" depart="487.53" type="ped_pedestrian">
        <walk from="272757312" to="687804455#2"/>
    </person>
    <person id="ped228" depart="489.68" type="ped_pedestrian">