<?xml version="1.0" encoding="UTF-8"?>

<!-- generated on 09/27/20 12:43:33 by Eclipse SUMO polyconvert Version 1.7.0
<configuration xmlns:xsi="http://www.w3.org/2001/XMLSchema-instance" xsi:noNamespaceSchemaLocation="http://sumo.dlr.de/xsd/polyconvertConfiguration.xsd">

    <input>
        <net-file value="osm.net.xml"/>
        <osm-files value="osm_bbox.osm.xml"/>
        <osm.keep-full-type value="true"/>
        <type-file value="F:\data\typemap\osmPolyconvert.typ.xml"/>
    </input>

    <output>
        <output-file value="osm.poly.xml"/>
    </output>

    <processing>
        <poi-layer-offset value="5"/>
    </processing>

    <report>
        <verbose value="true"/>
    </report>

</configuration>
-->

<additional xmlns:xsi="http://www.w3.org/2001/XMLSchema-instance" xsi:noNamespaceSchemaLocation="http://sumo.dlr.de/xsd/additional_file.xsd">
    <location netOffset="-389562.46,-5819108.12" convBoundary="-6129.43,-3727.27,4414.86,4151.07" origBoundary="13.282814,52.477280,13.436728,52.548335" projParameter="+proj=utm +zone=33 +ellps=WGS84 +datum=WGS84 +units=m +no_defs"/>

    <poly id="100575040" type="leisure.park" color="207,245,201" fill="1" layer="-2.00" shape="1781.206765,1513.718671 1780.313399,1513.527070 1774.308861,1512.091319 1768.357356,1510.598760 1775.394440,1483.936578 1783.457805,1455.193027 1760.497144,1449.404317 1762.376242,1437.433793 1753.726132,1436.067906 1748.500830,1437.942050 1743.773612,1440.851141 1746.399575,1446.935306 1738.452986,1450.049394 1732.196074,1452.536220 1729.846025,1446.957808 1719.593460,1451.981435 1721.162669,1453.571230 1720.724357,1455.839871 1718.695135,1456.764007 1718.095391,1460.015464 1711.814096,1458.040678 1712.082952,1456.699392 1700.454850,1459.683862 1691.763663,1461.968862 1691.004531,1463.543590 1687.368036,1464.525689 1685.328034,1463.435976 1681.410260,1450.225461 1682.070140,1449.988253 1681.234890,1446.913320 1679.598969,1442.320557 1668.211197,1447.569804 1655.640851,1453.357220 1652.492569,1454.929392 1650.121536,1458.186827 1653.379969,1463.711640 1648.087545,1466.533234 1648.714783,1467.576425 1646.108732,1475.835394 1643.636997,1483.724169 1641.563491,1490.291036 1637.591062,1488.676768 1633.168734,1491.556941 1651.042656,1508.507807 1656.694730,1509.962366 1664.593987,1512.056927 1671.453948,1513.807373 1677.222074,1515.292761 1682.219428,1516.606104 1688.001362,1518.102325 1704.446248,1522.366226 1721.098685,1526.503169 1737.901322,1530.681344 1743.826173,1532.196712 1749.150345,1533.558506 1754.890793,1535.022343 1761.518557,1536.711300 1766.556567,1538.023826 1773.087868,1539.648174 1774.152798,1539.924988 1776.010848,1532.817709 1781.206765,1513.718671"/>
    <poly id="100575042" type="building.residential" color="255,230,230" fill="1" layer="-1.00" shape="1749.280262,1557.146205 1754.890793,1535.022343 1749.150345,1533.558506 1748.535158,1535.808815 1748.979559,1535.954738 1747.602305,1541.482360 1748.029199,1542.062648 1747.328390,1542.901649 1746.029602,1542.485373 1746.167488,1541.970441 1742.378556,1540.975166 1742.239319,1541.734936 1740.505382,1541.283810 1740.312827,1540.253215 1741.207906,1539.910644 1742.478588,1534.474407 1743.195574,1534.669917 1743.826173,1532.196712 1737.901322,1530.681344 1735.780759,1539.107527 1732.364494,1552.759081 1749.280262,1557.146205"/>
    <poly id="100950874" type="building.commercial" color="255,230,230" fill="1" layer="-1.00" shape="2085.861041,1220.810462 2066.531240,1212.269336 2062.386371,1201.945625 2074.119327,1181.578411 2087.474252,1188.805173 2085.861041,1220.810462"/>
    <poly id="100950876" type="building.commercial" color="255,230,230" fill="1" layer="-1.00" shape="2124.198570,1162.577354 2113.045332,1181.240220 2110.630021,1185.277327 2111.197971,1229.363436 2111.266465,1234.914593 2112.635520,1238.812351 2114.591247,1242.229774 2117.228481,1245.465208 2122.223956,1249.449670 2125.401180,1251.015153 2145.213318,1258.666757 2177.038451,1191.063995 2124.198570,1162.577354"/>
    <poly id="100950877" type="building.commercial" color="255,230,230" fill="1" layer="-1.00" shape="2156.048103,1197.670501 2136.353627,1239.545177 2130.101735,1237.368904 2127.425302,1235.736703 2125.821583,1232.890126 2124.770629,1227.416337 2126.479909,1195.753900 2151.880749,1195.837574 2156.048103,1197.670501"/>
    <poly id="100950878" type="building.commercial" color="255,230,230" fill="1" layer="-1.00" shape="2094.833269,1238.872346 2100.154207,1225.045426 2101.572733,1193.133473 2101.493155,1189.229446 2099.950572,1184.545470 2097.463956,1180.449886 2093.511305,1176.664927 2089.561743,1174.860616 2068.071688,1163.485225 2048.817291,1197.616848 2047.044102,1203.676128 2047.178157,1209.426132 2048.869703,1215.931723 2055.724200,1223.558211 2094.833269,1238.872346"/>
    <poly id="101309884" type="landuse.commercial" color="209,209,204" fill="1" layer="-3.00" shape="2774.113322,1540.681370 2723.181286,1568.963861 2722.317021,1569.784057 2722.109062,1570.511923 2722.444912,1571.895480 2753.790008,1639.918698 2772.205920,1680.184938 2853.243293,1717.683947 2893.744626,1696.887022 2894.982776,1692.386554 2832.592229,1614.584766 2785.549026,1557.332693 2774.113322,1540.681370"/>
    <poly id="101309886" type="building.apartments" color="255,230,230" fill="1" layer="-1.00" shape="3018.038141,1619.871189 3033.754043,1607.998313 3026.861898,1598.869133 3025.030417,1596.438996 3023.108307,1593.899573 3025.918847,1591.768198 3019.341691,1583.077220 3002.034557,1560.166997 2990.752519,1545.225463 2981.519269,1552.204747 2985.475517,1557.436891 2988.963582,1562.056169 2999.336622,1575.782486 3002.566345,1580.073616 3018.607995,1601.297960 3020.348606,1603.607685 3010.908310,1610.736117 3004.699581,1615.434627 3011.682374,1624.673064 3018.038141,1619.871189"/>
    <poly id="102522991" type="landuse.construction" color="194,194,130" fill="1" layer="-3.00" shape="2480.599429,890.316732 2396.387013,902.878442 2386.453582,903.064200 2361.145040,885.696101 2324.762819,858.691272 2326.406805,850.754405 2359.038222,806.525408 2365.898639,803.959343 2370.630060,803.042632 2376.877762,802.548701 2380.192176,803.554950 2463.820190,860.475283 2470.622982,850.677717 2568.709753,921.268399 2565.538715,925.533331 2593.390825,946.251475 2581.182249,963.946077 2518.514260,916.999594 2480.599429,890.316732"/>
    <poly id="102864701" type="building.residential" color="255,230,230" fill="1" layer="-1.00" shape="2265.343820,1578.177684 2256.162697,1566.273696 2255.911112,1565.945426 2258.493899,1563.963291 2258.745484,1564.291560 2259.292903,1563.878873 2259.054885,1563.550304 2261.624106,1561.568470 2261.875692,1561.896740 2262.403251,1561.506747 2262.151420,1561.167355 2264.720645,1559.185522 2264.986288,1559.535737 2265.540246,1559.111778 2265.274602,1558.761564 2267.850859,1556.790705 2268.116502,1557.140920 2269.952543,1555.765050 2278.832068,1567.842639 2271.370728,1573.571252 2271.224339,1573.396444 2269.576038,1574.668019 2269.708613,1574.832004 2267.526216,1576.504844 2265.343820,1578.177684"/>
    <poly id="102864702" type="building.residential" color="255,230,230" fill="1" layer="-1.00" shape="2259.376816,1604.848819 2265.750783,1599.978777 2257.274017,1588.927179 2256.499888,1589.522917 2254.125124,1586.481913 2254.479007,1586.218160 2254.632426,1586.403939 2256.507679,1584.960431 2256.388671,1584.796147 2258.036720,1583.513446 2258.183355,1583.699375 2265.343820,1578.177684 2256.162697,1566.273696 2239.864020,1578.729510 2259.376816,1604.848819"/>
    <poly id="104287994" type="building.yes" color="255,230,230" fill="1" layer="-1.00" shape="806.934139,1548.520842 816.112665,1541.649855 809.187316,1532.446496 800.008781,1539.317496 806.934139,1548.520842"/>
    <poly id="104288001" type="building.yes" color="255,230,230" fill="1" layer="-1.00" shape="809.287632,1530.864115 816.968289,1541.063187 820.779826,1538.207061 813.099173,1528.007983 809.287632,1530.864115"/>
    <poly id="104288005" type="building.yes" color="255,230,230" fill="1" layer="-1.00" shape="792.755785,1543.975494 809.183453,1531.667643 801.950376,1522.059457 785.522443,1534.356210 792.755785,1543.975494"/>
    <poly id="104392614" type="building.yes" color="255,230,230" fill="1" layer="-1.00" shape="884.539631,1261.569862 887.111557,1262.758628 890.703914,1254.644068 911.912262,1265.141595 902.833500,1284.695718 880.991917,1274.713147 879.243051,1273.906567 884.539631,1261.569862"/>
    <poly id="104393529" type="building.yes" color="255,230,230" fill="1" layer="-1.00" shape="979.724003,1414.728335 955.988454,1408.949546 951.892583,1425.810558 950.449516,1431.695991 954.361291,1433.923090 956.093490,1431.558673 957.439599,1425.586388 967.970356,1428.177393 965.231269,1439.544364 970.713098,1443.995298 976.723716,1426.557372 979.724003,1414.728335"/>
    <poly id="104393530" type="building.yes" color="255,230,230" fill="1" layer="-1.00" shape="917.822339,1453.824171 921.820716,1437.466052 927.637920,1439.005109 931.534430,1421.124784 935.576780,1403.997885 922.364433,1400.777002 916.932060,1399.451896 913.401592,1414.275057 913.103575,1415.516898 918.386685,1416.845337 922.215858,1417.805701 924.925748,1418.490652 922.783106,1427.084642 922.490131,1428.248475 921.923288,1430.520075 915.386230,1428.963741 913.639346,1428.546576 904.932554,1426.482401 904.460015,1428.418063 903.552528,1428.204680 902.767650,1428.010810 901.034332,1427.593347 897.121965,1443.849412 900.644851,1444.772099 899.526004,1449.370612 917.822339,1453.824171"/>
    <poly id="104393531" type="building.yes" color="255,230,230" fill="1" layer="-1.00" shape="899.791490,1496.434845 901.457293,1498.689888 895.677228,1503.359290 894.670749,1502.057609 890.893558,1504.935162 857.815306,1462.288371 861.276094,1459.829598 868.659051,1454.601288 871.184501,1457.660537 877.253708,1465.002556 884.108027,1459.808353 882.447429,1457.786880 888.337321,1458.934795 892.041870,1459.786646 935.109712,1469.917676 899.791490,1496.434845"/>
    <poly id="104393532" type="building.yes" color="255,230,230" fill="1" layer="-1.00" shape="966.975326,1454.104909 1006.417626,1428.352918 1007.792395,1421.534304 979.724003,1414.728335 976.723716,1426.557372 991.980577,1430.155554 970.713098,1443.995298 965.265035,1451.984372 966.975326,1454.104909"/>
    <poly id="104393533" type="building.yes" color="255,230,230" fill="1" layer="-1.00" shape="850.984847,1422.448262 839.394282,1419.514012 835.752471,1435.719566 822.731825,1432.572555 827.806440,1414.276293 820.610846,1412.412121 836.696518,1379.948639 858.180211,1385.176354 855.060620,1399.244813 841.288180,1395.869764 837.856336,1409.934097 853.485423,1413.779460 850.984847,1422.448262"/>
    <poly id="104393534" type="building.yes" color="255,230,230" fill="1" layer="-1.00" shape="955.988454,1408.949546 935.576780,1403.997885 931.534430,1421.124784 937.371642,1422.040255 938.543491,1417.685377 946.945254,1419.767560 944.233096,1431.122814 943.454755,1430.917664 942.264972,1435.684667 934.052617,1433.876450 932.761059,1439.858650 938.670993,1441.295497 936.671616,1449.619213 935.606442,1454.494708 938.745186,1455.236842 940.160570,1450.542687 942.967997,1444.359678 945.466756,1439.852726 948.058048,1436.144902 950.449516,1431.695991 951.892583,1425.810558 955.988454,1408.949546"/>
    <poly id="104786904" type="natural.grassland" color="140,196,107" fill="1" layer="-4.00" shape="1446.157685,859.158627 1451.494925,797.314817 1432.098166,795.654475 1426.754382,857.498461 1446.157685,859.158627"/>
    <poly id="104786906" type="building.yes" color="255,230,230" fill="1" layer="-1.00" shape="1460.349372,963.698627 1523.673615,975.287066 1516.668968,985.379829 1512.981052,990.168842 1508.507803,995.965686 1506.601254,998.445045 1492.502716,997.523480 1481.123173,996.775145 1481.723936,989.606704 1503.231131,991.275910 1504.561583,984.258158 1464.702808,977.533571 1463.185980,978.613321 1461.336913,987.946049 1462.367751,989.124897 1462.166135,990.130871 1461.319699,990.528046 1461.098480,995.228835 1457.611341,995.005984 1454.307384,994.779059 1454.708632,992.678132 1458.567303,973.296929 1460.176148,963.235121 1460.349372,963.698627"/>
    <poly id="104786907" type="building.residential" color="255,230,230" fill="1" layer="-1.00" shape="1489.122308,945.343265 1487.847129,958.201805 1448.157191,950.839313 1451.255836,918.655971 1464.883896,919.777064 1466.079904,906.107961 1479.387631,907.169457 1478.250341,919.513059 1470.432541,918.685504 1469.147831,932.334324 1477.043314,932.993234 1476.582179,938.200103 1476.117519,944.163730 1489.122308,945.343265"/>
    <poly id="104786910" type="building.yes" color="255,230,230" fill="1" layer="-1.00" shape="1566.835663,972.135249 1579.507105,955.573851 1563.411510,942.990193 1564.117433,942.073161 1563.336929,941.467364 1566.411272,937.470966 1567.122447,938.011539 1568.065942,936.788781 1572.022986,939.827686 1572.781705,938.842717 1589.563162,951.744991 1596.822771,942.425608 1606.876549,945.518224 1586.706364,971.637930 1579.218261,981.363004 1566.835663,972.135249"/>
    <poly id="104786915" type="building.yes" color="255,230,230" fill="1" layer="-1.00" shape="1564.348238,965.280281 1550.820559,962.865880 1549.703646,969.111062 1563.206148,971.615041 1564.348238,965.280281"/>
    <poly id="104786916" type="building.yes" color="255,230,230" fill="1" layer="-1.00" shape="1592.641704,897.540630 1587.801520,914.628970 1625.882191,925.633701 1630.683125,911.662011 1628.017959,910.552820 1625.463661,908.628851 1622.761447,906.463361 1619.061664,904.920930 1604.750964,900.876882 1592.641704,897.540630"/>
    <poly id="104991245" type="building.yes" color="255,230,230" fill="1" layer="-1.00" shape="1471.774732,1280.715902 1484.577457,1276.514108 1486.441383,1282.192250 1486.879381,1282.048973 1492.310748,1298.586229 1493.139748,1298.322977 1497.282213,1310.927469 1496.413005,1311.213869 1501.852086,1327.795472 1488.119472,1332.296106 1485.330887,1323.800985 1484.738097,1324.003344 1481.825760,1315.132638 1482.418551,1314.930279 1478.821482,1303.960556 1478.275683,1304.139615 1475.399472,1295.368257 1476.012618,1295.165444 1474.585676,1290.824028 1473.224243,1286.681452 1473.675561,1286.526751 1471.774732,1280.715902"/>
    <poly id="104991246" type="building.yes" color="255,230,230" fill="1" layer="-1.00" shape="1374.939163,1324.667073 1373.656640,1321.023509 1388.876434,1315.643733 1390.170534,1319.198021 1374.939163,1324.667073"/>
    <poly id="105187864" type="building.yes" color="255,230,230" fill="1" layer="-1.00" shape="955.277860,910.500568 949.736193,910.079194 944.350074,909.632093 942.364234,909.465063 940.555291,909.316335 937.896279,909.097592 938.575161,900.903564 939.497902,889.043076 929.600091,888.095966 928.544168,900.070712 927.966357,907.016181 927.438170,913.448666 927.010294,918.599225 926.886826,920.059713 926.618472,923.237104 926.458454,925.188028 926.292398,927.172469 925.808189,932.535714 936.309245,933.447070 936.738193,928.040551 936.888127,926.245642 937.080402,923.915656 937.326349,920.950193 937.493653,919.021362 939.139264,919.151486 941.227119,919.327360 943.348897,919.502478 948.911654,919.956756 954.470680,920.244209 955.277860,910.500568"/>
    <poly id="105187864#1" type="landuse.commercial" color="209,209,204" fill="1" layer="-3.00" shape="955.277860,910.500568 949.736193,910.079194 944.350074,909.632093 942.364234,909.465063 940.555291,909.316335 937.896279,909.097592 938.575161,900.903564 939.497902,889.043076 929.600091,888.095966 928.544168,900.070712 927.966357,907.016181 927.438170,913.448666 927.010294,918.599225 926.886826,920.059713 926.618472,923.237104 926.458454,925.188028 926.292398,927.172469 925.808189,932.535714 936.309245,933.447070 936.738193,928.040551 936.888127,926.245642 937.080402,923.915656 937.326349,920.950193 937.493653,919.021362 939.139264,919.151486 941.227119,919.327360 943.348897,919.502478 948.911654,919.956756 954.470680,920.244209 955.277860,910.500568"/>
    <poly id="105187865" type="building.office" color="255,230,230" fill="1" layer="-1.00" shape="984.881677,844.641799 1083.300463,852.146693 1076.230158,919.460080 1074.266774,940.969208 1072.292079,962.578741 934.553420,951.157095 924.406941,950.315709 888.486162,947.335642 895.536095,870.730724 930.902147,873.467329 930.163949,881.740578 905.050159,879.709412 902.954713,904.993874 927.966357,907.016181 927.438170,913.448666 927.010294,918.599225 905.080357,916.875217 902.988986,942.037186 924.873061,943.840100 925.808189,932.535714 936.309245,933.447070 935.349014,944.540588 950.819028,945.763730 951.939784,931.829068 963.045161,932.749227 963.477372,927.487299 985.490884,929.309847 984.688446,938.964354 1048.572556,944.235928 1052.799168,893.377063 1063.673181,894.269236 1064.786341,880.891166 1015.135089,876.792455 1016.055062,865.710988 1001.331883,864.504327 999.261653,889.420952 981.287760,887.942034 984.101384,854.073256 984.881677,844.641799"/>
    <poly id="105187865#1" type="landuse.commercial" color="209,209,204" fill="1" layer="-3.00" shape="984.881677,844.641799 1083.300463,852.146693 1076.230158,919.460080 1074.266774,940.969208 1072.292079,962.578741 934.553420,951.157095 924.406941,950.315709 888.486162,947.335642 895.536095,870.730724 930.902147,873.467329 930.163949,881.740578 905.050159,879.709412 902.954713,904.993874 927.966357,907.016181 927.438170,913.448666 927.010294,918.599225 905.080357,916.875217 902.988986,942.037186 924.873061,943.840100 925.808189,932.535714 936.309245,933.447070 935.349014,944.540588 950.819028,945.763730 951.939784,931.829068 963.045161,932.749227 963.477372,927.487299 985.490884,929.309847 984.688446,938.964354 1048.572556,944.235928 1052.799168,893.377063 1063.673181,894.269236 1064.786341,880.891166 1015.135089,876.792455 1016.055062,865.710988 1001.331883,864.504327 999.261653,889.420952 981.287760,887.942034 984.101384,854.073256 984.881677,844.641799"/>
    <poly id="105187866" type="building.yes" color="255,230,230" fill="1" layer="-1.00" shape="999.261653,889.420952 996.822724,918.796892 986.438483,917.949561 985.490884,929.309847 963.477372,927.487299 964.018675,921.032270 954.470680,920.244209 955.277860,910.500568 956.031867,901.414649 980.003954,903.393694 981.287760,887.942034 999.261653,889.420952"/>
    <poly id="105187866#1" type="landuse.commercial" color="209,209,204" fill="1" layer="-3.00" shape="999.261653,889.420952 996.822724,918.796892 986.438483,917.949561 985.490884,929.309847 963.477372,927.487299 964.018675,921.032270 954.470680,920.244209 955.277860,910.500568 956.031867,901.414649 980.003954,903.393694 981.287760,887.942034 999.261653,889.420952"/>
    <poly id="105210597" type="building.residential" color="255,230,230" fill="1" layer="-1.00" shape="2182.541573,1600.860733 2220.031924,1570.109911 2211.185791,1561.392219 2186.964981,1580.521836 2183.500887,1576.714888 2177.897211,1581.734922 2176.374205,1580.077200 2170.474805,1584.614167 2171.244373,1585.654273 2174.784381,1590.438764 2182.541573,1600.860733"/>
    <poly id="105347619" type="building.apartments" color="255,230,230" fill="1" layer="-1.00" shape="908.095272,1157.299456 907.888125,1157.749196 907.059286,1159.537037 901.210336,1156.897061 903.567879,1151.836869 899.667643,1148.619179 899.218749,1149.185605 896.457009,1147.099733 896.905157,1146.499941 892.019828,1142.636631 890.461520,1144.585452 889.559981,1146.764391 890.355421,1147.124940 888.930544,1150.183546 881.959423,1147.446290 874.988046,1144.697922 878.626876,1134.712866 878.169986,1132.797996 878.675344,1131.417984 880.020766,1130.876011 882.041208,1125.311475 883.242619,1123.793488 882.212592,1122.959697 884.488007,1119.993339 885.566270,1120.859434 886.371818,1119.851049 892.669361,1124.639747 893.103942,1124.040259 903.169338,1131.893828 904.013106,1130.773314 907.522982,1133.532374 911.039887,1136.302408 910.236327,1137.399765 920.660920,1145.534655 916.330221,1154.633808 912.936942,1151.927772 909.379838,1152.519201 907.427493,1156.880411 908.095272,1157.299456"/>
    <poly id="105347629" type="building.apartments" color="255,230,230" fill="1" layer="-1.00" shape="935.852418,1181.382205 946.346409,1170.464986 952.806049,1176.741244 959.272457,1183.017359 959.290466,1186.555562 941.988428,1203.845349 930.613021,1195.375593 932.884738,1193.154896 938.969299,1187.210189 940.417182,1185.786854 935.852418,1181.382205"/>
    <poly id="105347632" type="building.residential" color="255,230,230" fill="1" layer="-1.00" shape="923.693246,1168.523423 924.116745,1168.035462 919.427663,1163.233010 917.620888,1164.998209 918.092916,1165.466143 915.760948,1167.421130 917.881463,1169.365565 914.900912,1176.008688 913.464026,1175.495566 912.324605,1177.357119 907.363446,1173.439852 910.825561,1166.173930 913.665247,1160.212743 916.330221,1154.633808 920.660920,1145.534655 933.281625,1157.782216 946.346409,1170.464986 935.852418,1181.382205 934.432915,1182.860545 928.051698,1189.501808 927.892358,1189.661159 923.331924,1186.057619 924.774083,1184.378470 924.358074,1183.987176 931.903163,1176.273880 927.282437,1171.492149 926.807468,1171.803218 923.693246,1168.523423"/>
    <poly id="105347635" type="building.hotel" color="255,230,230" fill="1" layer="-1.00" shape="806.416283,1224.037401 812.451930,1225.315504 814.733601,1223.239186 817.183012,1216.830439 819.439608,1210.904500 831.683697,1215.114906 827.798682,1225.617389 823.491321,1237.264354 822.716739,1239.351445 808.561490,1236.786235 793.363761,1234.044109 783.938380,1232.341183 786.781425,1217.444293 793.080674,1218.671960 792.802217,1220.180434 793.728861,1221.550650 796.346948,1222.070674 796.608976,1221.041059 799.865776,1221.591296 799.749575,1222.161410 806.533232,1223.500653 806.416283,1224.037401"/>
    <poly id="105349132" type="building.hotel" color="255,230,230" fill="1" layer="-1.00" shape="855.109023,1236.100508 851.559156,1234.889131 852.933073,1231.375417 856.551531,1232.618643 857.375858,1230.630594 859.674379,1225.059823 863.940510,1226.733671 874.900037,1233.298613 867.078819,1249.898086 851.979904,1243.681726 854.117518,1238.504023 855.109023,1236.100508"/>
    <poly id="105349133" type="building.commercial" color="255,230,230" fill="1" layer="-1.00" shape="868.874976,1158.165670 869.643620,1155.811656 871.187456,1155.643583 871.603303,1154.510382 877.387051,1156.662163 877.589965,1156.023345 879.164538,1156.622398 880.739110,1157.221451 880.508311,1157.827510 884.108701,1159.171311 885.726084,1160.470453 885.978032,1160.809776 886.135994,1161.195712 886.192690,1161.606168 886.141086,1162.030175 885.979938,1162.412121 885.729599,1162.751552 885.402642,1163.003676 884.628917,1163.310304 884.223601,1163.397265 883.396415,1163.438025 882.476703,1166.017970 883.655958,1168.061341 886.094054,1169.030547 886.435459,1168.210588 892.382934,1170.703683 891.994537,1171.546948 894.426592,1172.549677 897.264082,1166.187932 896.928916,1166.073024 901.210336,1156.897061 907.059286,1159.537037 907.964515,1159.950771 906.078842,1163.954405 910.825561,1166.173930 907.363446,1173.439852 906.689225,1174.857021 901.967094,1172.826121 897.774697,1181.733028 902.526762,1183.585211 900.594609,1187.634398 864.419588,1173.821875 864.676028,1173.148476 863.681239,1172.069092 864.555191,1169.568061 866.020597,1169.535273 869.823521,1159.301728 868.874976,1158.165670"/>
    <poly id="105349135" type="building.hotel" color="255,230,230" fill="1" layer="-1.00" shape="860.353931,1238.442367 859.625395,1240.161207 861.934064,1241.111041 863.874525,1241.379198 865.318389,1239.777886 865.191492,1238.656828 866.459726,1235.879910 867.293749,1235.538546 867.853366,1234.157318 866.534192,1233.140830 864.859923,1233.545505 862.757266,1232.702337 862.276324,1233.959400 861.041470,1234.587927 859.793591,1237.364391 860.353931,1238.442367"/>
    <poly id="105349136" type="building.apartments" color="255,230,230" fill="1" layer="-1.00" shape="864.324923,1211.758315 864.763095,1211.926554 863.552980,1215.481111 863.038938,1215.258931 861.628783,1218.973752 862.856650,1220.459645 863.383016,1220.625910 863.658313,1219.885323 864.820037,1219.325199 864.965871,1218.865701 872.934116,1221.881068 873.445185,1220.756864 876.419892,1222.047891 875.352869,1225.020603 878.289172,1226.112191 876.435731,1230.037223 874.900037,1233.298613 863.940510,1226.733671 859.674379,1225.059823 844.787369,1219.217084 846.369549,1214.697213 847.450168,1215.062500 847.610564,1214.647186 848.963547,1215.050889 853.707799,1202.904554 852.530706,1202.474658 852.697390,1202.036948 851.390151,1201.554326 853.073112,1196.987693 855.715475,1197.985696 889.572898,1210.759479 886.259920,1217.710507 882.948309,1216.226713 882.340034,1216.040022 883.017859,1214.177661 879.691365,1212.939011 878.573365,1215.757075 875.796891,1214.528378 876.216964,1213.584253 867.939435,1210.397757 868.253697,1209.578404 867.956631,1208.739345 868.225642,1208.021154 867.637719,1207.834009 865.637301,1208.223726 864.324923,1211.758315"/>
    <poly id="105349138" type="building.apartments" color="255,230,230" fill="1" layer="-1.00" shape="883.664763,1202.134149 892.198851,1205.259295 889.572898,1210.759479 855.715475,1197.985696 860.067520,1185.903784 864.419588,1173.821875 900.594609,1187.634398 897.806991,1193.494279 888.210563,1190.214844 887.260981,1192.673052 884.187233,1191.506639 884.556270,1190.708317 876.345374,1187.164228 876.617374,1186.579502 876.338986,1185.361684 876.555716,1184.733684 874.047961,1185.201514 872.759721,1188.602028 873.121212,1188.983409 871.835462,1192.495145 871.178385,1192.554356 869.868736,1196.211287 871.337407,1198.448478 871.671079,1198.496651 872.079143,1197.319113 872.831762,1196.979572 873.052539,1196.229076 881.403221,1199.347180 881.765290,1198.237438 884.662892,1199.418917 883.664763,1202.134149"/>
    <poly id="105354131" type="building.residential" color="255,230,230" fill="1" layer="-1.00" shape="833.059943,1242.335843 834.757108,1242.954393 836.728648,1237.635737 847.664054,1241.908853 845.720950,1246.982058 842.629692,1255.040927 840.513383,1260.563119 839.644078,1260.237615 829.730996,1256.453510 833.322584,1246.792173 831.613595,1246.251782 833.059943,1242.335843"/>
    <poly id="105354133" type="building.residential" color="255,230,230" fill="1" layer="-1.00" shape="829.730996,1256.453510 839.644078,1260.237615 837.568792,1265.469570 834.562582,1273.081434 824.903771,1269.436309 829.730996,1256.453510"/>
    <poly id="105354134" type="building.residential" color="255,230,230" fill="1" layer="-1.00" shape="840.513383,1260.563119 842.629692,1255.040927 853.146741,1259.123118 852.832984,1259.964717 854.909491,1260.852977 853.068776,1265.345247 840.513383,1260.563119"/>
    <poly id="105354135" type="building.residential" color="255,230,230" fill="1" layer="-1.00" shape="821.664184,1278.143920 831.835585,1282.856952 826.106719,1297.707130 815.992043,1293.404566 818.828109,1285.774242 821.664184,1278.143920"/>
    <poly id="105354426" type="building.apartments" color="255,230,230" fill="1" layer="-1.00" shape="807.377736,1281.234528 799.374057,1303.313037 787.174602,1300.481554 795.706203,1276.822197 807.377736,1281.234528"/>
    <poly id="105354427" type="building.apartments" color="255,230,230" fill="1" layer="-1.00" shape="799.374057,1303.313037 793.033457,1320.847603 781.516613,1317.277551 787.174602,1300.481554 799.374057,1303.313037"/>
    <poly id="105354430" type="building.residential" color="255,230,230" fill="1" layer="-1.00" shape="819.409767,1323.584286 834.707029,1329.573545 841.861985,1310.206996 826.647762,1304.594196 819.409767,1323.584286"/>
    <poly id="105354431" type="building.residential" color="255,230,230" fill="1" layer="-1.00" shape="852.163288,1331.041199 850.035027,1330.265377 845.868877,1342.153975 836.561614,1336.620383 833.931145,1335.544232 828.287061,1333.255849 804.730588,1323.679218 810.364689,1308.541812 815.992043,1293.404566 826.106719,1297.707130 830.424023,1299.546717 831.181419,1297.905120 843.684261,1302.465844 845.327715,1297.955728 859.338208,1305.587379 854.093641,1319.636619 855.941519,1320.318568 852.163288,1331.041199"/>
    <poly id="105354432" type="building.apartments" color="255,230,230" fill="1" layer="-1.00" shape="812.739726,1266.370285 807.377736,1281.234528 795.706203,1276.822197 800.361936,1264.065761 812.739726,1266.370285"/>
    <poly id="105354433" type="building.apartments" color="255,230,230" fill="1" layer="-1.00" shape="789.449805,1249.009483 817.204188,1254.163406 812.739726,1266.370285 800.361936,1264.065761 792.361727,1262.653617 790.534720,1270.483917 785.823216,1269.532280 789.449805,1249.009483"/>
    <poly id="105354601" type="building.apartments" color="255,230,230" fill="1" layer="-1.00" shape="779.326963,1323.157502 780.722707,1319.409593 781.516613,1317.277551 793.033457,1320.847603 792.234507,1323.057650 788.081618,1334.623302 776.384253,1331.780606 779.326963,1323.157502"/>
    <poly id="105733615" type="building.yes" color="255,230,230" fill="1" layer="-1.00" shape="1096.522482,1347.645160 1097.956913,1329.508393 1110.877248,1330.288181 1109.172163,1349.376838 1096.522482,1347.645160"/>
    <poly id="105733616" type="building.residential" color="255,230,230" fill="1" layer="-1.00" shape="1042.902976,1345.871604 1042.707871,1348.379692 1042.513014,1350.898902 1041.018043,1350.821022 1020.859727,1349.012477 1011.787209,1348.202581 1006.040035,1347.674476 1004.210406,1347.503937 997.035103,1346.851970 989.658065,1342.944108 992.202495,1338.046695 992.676560,1338.303164 994.992472,1332.898986 1001.243016,1336.208880 1005.139723,1336.544651 1026.431034,1338.327819 1027.008972,1331.081910 1027.608831,1323.601829 1027.804427,1321.115985 1029.001157,1321.211652 1041.443838,1322.179973 1043.369445,1322.392893 1044.874439,1322.615210 1044.651946,1325.112782 1044.429951,1327.632598 1042.940762,1327.510077 1042.679155,1330.687312 1042.593965,1331.735218 1041.434394,1345.759751 1042.902976,1345.871604"/>