<?xml version="1.0" encoding="UTF-8"?>

<!-- generated on 09/27/20 12:43:59 by Eclipse SUMO duarouter Version 1.7.0
<configuration xmlns:xsi="http://www.w3.org/2001/XMLSchema-instance" xsi:noNamespaceSchemaLocation="http://sumo.dlr.de/xsd/duarouterConfiguration.xsd">

    <input>
        <net-file value="C:\Users\narwayaayush\Sumo\2020-09-27-12-43-01\osm.net.xml"/>
        <route-files value="C:\Users\narwayaayush\Sumo\2020-09-27-12-43-01\osm.pedestrian.trips.xml"/>
    </input>

    <output>
        <output-file value="C:\Users\narwayaayush\Sumo\2020-09-27-12-43-01\osm.pedestrian.rou.xml"/>
        <alternatives-output value="C:\Users\narwayaayush\Sumo\2020-09-27-12-43-01\osm.pedestrian.rou.alt.xml"/>
    </output>

    <time>
        <begin value="0"/>
        <end value="3600"/>
    </time>

    <report>
        <no-warnings value="true"/>
        <ignore-errors value="true"/>
        <no-step-log value="true"/>
    </report>

</configuration>
-->

<routes xmlns:xsi="http://www.w3.org/2001/XMLSchema-instance" xsi:noNamespaceSchemaLocation="http://sumo.dlr.de/xsd/routes_file.xsd">
    <vType id="ped_pedestrian" vClass="pedestrian"/>
    <person id="ped0" type="ped_pedestrian" depart="0.00">
        <walk edges="377634146 346229516#2 272780737 272780760 377634140 272780736 346229515#4 346229515#3 346229515#2 346229515#1 377634147#0 377634147#1 272757348#1 272757347#0 272757325#0 272757302 272757278 272757258#4 272757260 272757281 272757318#0 272757349#0 75228233 687966677#2 687966677#1 687966677#0 687966676#1 687966676#0 4790825#1 43270574#2 43270574#0 24990040 188914559 168942727#3 168942727#2 168942727#1 168942727#0 275008387#2 275008387#1 275008387#0 23809677 23852046#0 23852046#1 23852029#1 51234180#0 51234180#1 554949050 554949051#1 554949051#2 31959084 51236793#0 51236793#1 181587281 339201225 181587282 26733828#2 26733828#3 181587285 570058775#1 -24243107#1 -168940071#0 -168940071#1 -168940071#2"/>
    </person>
    <person id="ped1" type="ped_pedestrian" depart="2.15">
        <walk edges="19002363#4 19002363#3 19002363#2 19002363#1 4613292#0 4613308#2 4613308#3 756306892 473149638#2 379904843#0 100405009#1 100405009#2 100405009#3 100405009#4 305093247#0 714295594#7 714295594#8 163368988#3 301733776 82638369#1 53609866#0 19801548#2 188046016#0 76865764#1 677412316#1 677412315#1 82659291#0 66311464#1 82639450 82639457#1 82639457#3 163870539#1"/>
    </person>
    <person id="ped2" type="ped_pedestrian" depart="4.30">
        <walk edges="4612968#2 -4612968#3 60333311#2 110769140 819027709#0 82654054 313194359#1 606078065 156364553#1 751595930 534588621#0 -534588621#1 375901784 375901777 24913519#1 24913519#2 541763975 202156995#0 202157014#1 424344281"/>
    </person>
    <person id="ped3" type="ped_pedestrian" depart="6.44">
        <walk edges="68647306#4 -68647306#3 -68647306#2 803471185 205728152#3 205728152#2 698625568 340498982#3 169195795#7 114667396#0 463829477#1 -340498976#2 -330840136"/>
    </person>
    <person id="ped4" type="ped_pedestrian" depart="8.59">
        <walk edges="272757317#1 272757294 272757339#2 272757258#8 272757258#9 272757326 272757285 272757331#1 272757350#0 272811798 169230291#2 169230291#1 169230291#0 -4612981#1 532972718#0 532972718#2 459651197 43239303#1 43239303#0 234463931#6 234463931#5 234463931#4 234463931#3 234463931#2 234463931#1 25294728 -77348147 156364570#0 156364570#1 156364570#2 46517262#6 -170370361#3"/>
    </person>
    <person id="ped5" type="ped_pedestrian" depart="10.74">
        <walk edges="15968749#1 202157021#0 202157021#1 23121445#0 -202156991#0 -202156991#1 -202156991#2 708628328 4610599 553649892 15971191#0 15971191#1 -28016312#0 -28016312#3 156364570#2 156364570#1 156364570#0 -77348147 25294728 234463931#1 234463931#2 234463931#3 234463931#4 234463931#5 234463931#6 43239303#0 43239303#1 459651197 415280722 112128419#2 112128419#1 100405009#1 100405009#2 100405009#3 488668302 112128417 301241681#3"/>
    </person>
    <person id="ped6" type="ped_pedestrian" depart="12.89">
        <walk edges="-168942727#3 -62363401 -234463928#0 -234463931#5 -234463931#4 -234463931#3 -234463931#2 -234463931#1 -234463931#0 77348147 156364570#0 156364570#1 156364570#2 -28016312#3 -28016312#0 15971191#1 15971191#0 553649892 4610599 553121565 553121566 553121560 133885750#4 -133885749#0 133885749#1"/>
    </person>
    <person id="ped7" type="ped_pedestrian" depart="15.03">
        <walk edges="380240683 -131505631#0 -131505631#1 -176043794 -437325051#1 -437325051#0 -111251382#3 478432725 6227658#1 6227658#2 6227658#3 437325054#0 465398530#1 465398530#2 -437325048#1 -560370523 -437325047#5 437325047#3 437325047#2 437325047#0 30721660#5 30721660#4 4610351#1 4610351#0 -454285423#0 31959081#0"/>
    </person>
    <person id="ped8" type="ped_pedestrian" depart="17.18">
        <walk edges="15971197#0 54048863 61584187#4 61584187#3 61584187#2 61584187#1 831694400 23013165#1 23013165#2 4611698#1 202156994#0 375901777 375901784 -534588621#1 534588621#0 751595930 156364553#1 606078065 313194359#1 82654054 819027709#0 110769140 60333311#2 -4612968#3 -344595607#0 285825378#0 -285825378#1 -285825378#2 285825377 313323170#1 344595605#1 344595605#0"/>
    </person>
    <person id="ped9" type="ped_pedestrian" depart="19.33">
        <walk edges="52348720#1 -52348719#1 52348718#1 7917219#1 374734389#0 374734396#1 374734396#2 388702047#1 374734393#3 374734393#4 35269774#0 478432725 42103020#0 30720544#1 30720544#0 541295974 -6228081 222328410 465376254 4402228 190447766#1 190447767 465376255#2 465376239 22972195#2 -11483007#2"/>
    </person>
    <person id="ped10" type="ped_pedestrian" depart="21.48">
        <walk edges="518508119#1 374734389#0 374734396#1 374734396#2 388702047#1 374734393#3 374734393#4 35269774#0 -6227658#1 -6227658#2 -6227658#3 437325054#0 465398530#1 465398530#2 -437325048#1 -560370523 -437325047#5 -437325047#3 -437325047#2 -437325047#0 4610362#0 4610362#1 4610362#2 4610362#4 4610362#5 4610362#6 4610362#7 4610362#8 30721662#1 30721662#2 30721662#3 23809670#1 23809670#2 23809670#3 15971191#1 437500499 437500502 437500504#0 437500504#1 437500504#2 437500498 437500501 437500497 437500500 437500503"/>
    </person>
    <person id="ped11" type="ped_pedestrian" depart="23.62">
        <walk edges="237520773#4 237520773#3 254523901#1 254523901#0 254523897 254523912#0 254523912#1 335704571 254523888#0 465376260#1 -516398559 -195397561#1 -195397561#0 -24243092#1 -24243092#0 -4610476#3 195262644 122820534#1 340498976#5 340498976#7 -330840134#2 699041686#0 699041686#1 803471194#2 803471194#1 -4610527 -377215961#2 -168937986#1 -4610524 66071379#1 -43231842#3 -43231842#2 -780327567"/>
    </person>
    <person id="ped12" type="ped_pedestrian" depart="25.77">
        <walk edges="818510438 6227658#3 -24243107#2 -24243107#1 570058775#1 181587285 26733828#3 26733828#2 181587282 339201225 181587281 235503139#1 235503139#0"/>
    </person>
    <person id="ped13" type="ped_pedestrian" depart="27.92">
        <walk edges="-35578576#1 -35578576#2 83517336#4 463829477#1 340498976#2 340498976#5 340498976#7 340498976#9 83517339 -4610480 -339201177#0 -339201177#1 -339201177#2 -339201177#3 -339201177#4 -339201177#5 -202156991#0 -202156991#1 -202156991#2 708628328 4610599 553649892 15971191#0 15971191#1 -28016312#0 -28016312#3 156364570#2 156364570#1 156364570#0 77348147 -387892378"/>
    </person>
    <person id="ped14" type="ped_pedestrian" depart="30.07">
        <walk edges="570058782 -427637455 -153698390#1 165832574#2 165832574#1 165832574#0 165832575 165832577 165832576 181587284#0 181587284#1 181587283 339201248 570058775#1 181587285 26733828#3 26733828#2 181587282 339201225 181587281 51236793#1 51236793#0 31959084 554949051#2 554949051#1 554949050 51234180#1 51234180#0 23852029#1 23852046#1 23852046#0 23809677 275008387#0 275008387#1 275008387#2 168942727#0 168942727#1 168942727#2 168942727#3 188914559 24990040 43270574#0 43270574#2 4790825#1 687966676#0 687966676#1 687966677#0 687966677#1 687966677#2 687966677#3 346212656#6 346212656#5 346212656#4 346206377#2 346206377#4 346206372#2 346206372#1 312138362#1 312138362#0 312138361#1 346212660#0"/>
    </person>
    <person id="ped15" type="ped_pedestrian" depart="32.22">
        <walk edges="51912365#1 -51912365#0 561333203 156364570#2 46517262#6 46517262#5 46517262#4 46517262#3 46517262#2 46517262#1 46517262#0 170098545#2 170098545#1 170098545#0 -30721662#3 -30721662#2 30721662#1 4610362#8 4610362#7 4610362#6 4610362#5 4610362#4 4610362#2 4610362#1 4610362#0 -437325047#0 -437325047#2 -437325047#3 -437325047#5 -560370523 -437325048#1 465398530#2 465398530#1 461165665#3 461165665#4"/>
    </person>
    <person id="ped16" type="ped_pedestrian" depart="34.36">
        <walk edges="312532334#2 312532334#1 312532334#0 312493778 -558867476 628330890 195407521 312019436#1 30826268#1 188046016#0 19801548#2 53609866#0 82638369#1 677412323#1 677412322 677412323#0 832173068#0 832173068#1 832173068#3 832173068#4 832173068#5"/>
    </person>
    <person id="ped17" type="ped_pedestrian" depart="36.51">
        <walk edges="254339586 254523900#1 254523887 335576646#2 335576646#1 335576646#0 335576640 254339565 237526578#0 196845298#1 196845298#2 440946429 688761154#0 24243052#0 292429063#0 327519010#0 327519010#1 327519011#0"/>
    </person>
    <person id="ped18" type="ped_pedestrian" depart="38.66">
        <walk edges="556076653 51167928#1 345088524#1 729397317 51234180#1 554949050 554949051#1 554949051#2 31959084 51236793#0 51236793#1 137630046 23852035#1 -137630045 -4610472#0 -4610472#1 -4610472#2 -34848160#0 -34848160#1 -195105328#0 -195105328#1 292429063#1 292429063#0 292429062#3 292429062#2 292429062#1 292429062#0 153698380#0 373292148"/>
    </person>
    <person id="ped20" type="ped_pedestrian" depart="42.95">
        <walk edges="440946432 237522576 237522574#1 237520773#6 237520773#5 237520773#4 237520773#3 254523901#1 254523901#0 254523897 254523912#0 254523912#1 335704571 254523888#0 465376260#1 -516398559 -195397561#1 439783174 780327561 339201224 -195411605#0"/>
    </person>
    <person id="ped21" type="ped_pedestrian" depart="45.10">
        <walk edges="165832574#0 165832575 165832577 165832576 181587284#0 181587284#1 181587283 339201248 570058775#1 181587285 26733828#3 26733828#2 181587282 339201225 181587281 51236793#1 51236793#0 31959084 554949051#2 554949051#1 554949050 51234180#1 51234180#0 23852029#1 23852046#1 23852046#0 23809677 275008387#0 275008387#1 275008387#2 168942727#0 168942727#1 168942727#2 168942727#3 -62363401 43239303#0 43239303#1 23813206#2 43239248 195401013#3"/>
    </person>
    <person id="ped22" type="ped_pedestrian" depart="47.25">
        <walk edges="-310177222#3 312127196#1 -315245296#1 -315245296#0 59332212#0 -312176585#2 714840291 72157175 687966677#3 687966677#2 687966677#1 687966677#0 687966676#1 687966676#0 4790825#1 43270574#2 43270574#0 24990040 188914559 168942727#3 168942727#2 168942727#1 168942727#0"/>
    </person>
    <person id="ped23" type="ped_pedestrian" depart="49.40">
        <walk edges="-43231842#2 -43231842#3 66071379#1 -4610524 -168937986#1 -377215961#2 -4610527 803471194#1 803471194#2 699041686#1 699041686#0 -330840134#2 340498976#7 340498976#5 122820534#1 195262644 -4610476#3 -24243092#0 -24243092#1 -195397561#0 -195397561#1 -516398559 194073677#4 194073677#3 194073677#2"/>
    </person>
    <person id="ped24" type="ped_pedestrian" depart="51.54">
        <walk edges="377494316#0 377494315 368198699 272757349#2 272757275 169230291#5 72157175 714840291 -312176585#2 59332212#0 -315245296#0 -315245296#1 309848027#1 82659291#0 66311464#1 82639450 82639457#1 82639457#3 246044848"/>
    </person>
    <person id="ped25" type="ped_pedestrian" depart="53.69">
        <walk edges="24993933#2 4613308#2 4613308#3 756306892 473149638#2 379904843#0 112128419#1 171829099#1 171829099#2 171829099#4 171829099#5 139877314#1"/>
    </person>
    <person id="ped26" type="ped_pedestrian" depart="55.84">
        <walk edges="176043807#1 176043807#0 176043806#1 176043806#0 176043794 -380240681 -750204886 153698390#1 165832574#2 165832574#1 165832574#0 165832575 165832577 165832576 181587284#0 181587284#1 181587283 339201248 570058775#1 181587285 26733828#3 26733828#2 181587282 339201225 181587281 51236793#1 51236793#0 31959084 554949051#2 554949051#1 554949050 51234180#1 51234180#0 345088426 137630051#0 137630051#1 15971191#1 28016312#0 28016312#1 156364556#1 202157002#0 202157002#1 202157002#2 375901779#1 375901768#2 375901777 375901784 -534588621#1 534588621#0 751595929#1"/>
    </person>
    <person id="ped27" type="ped_pedestrian" depart="57.99">
        <walk edges="379904843#2 379904843#4 379904843#5 379904843#6 714295595#9 714295594#0 687966679#1 346206362#1 346206381#2 346206381#1 346206374 272795493 272795489#1 272795489#0 272795502#2 272795485 272780728 272780727 272780749#0 346229515#3"/>
    </person>
    <person id="ped28" type="ped_pedestrian" depart="60.14">
        <walk edges="104991252#2 466923186 26733828#3 181587285 570058775#1 24243107#1 24243107#2 437325054#0 461165665#2"/>
    </person>
    <person id="ped29" type="ped_pedestrian" depart="62.28">
        <walk edges="100405009#1 379904843#0 473149638#2 756306892 4613308#3 4613308#2 4613292#0 -19002363#1 -19002363#2 55741054 -168942727#3 -168942727#2 -168942727#1 -168942727#0 275008387#2 275008387#1 275008387#0 23809677 23852046#0 23852046#1 23852029#1 51234180#0 51234180#1 554949050 554949051#1 554949051#2 31959084 51236793#0 51236793#1 137630046 23852035#1 -137630045 -4610472#0 -4610472#1 -4610472#2 -34848160#0 -34848160#1 194073677#0 422002325 237520773#1 237520773#2 237520773#3 254339591#6 254339592#0 254339583 254339590#2"/>
    </person>
    <person id="ped31" type="ped_pedestrian" depart="66.58">
        <walk edges="330840125#1 171423002 38211708#0 340498982#2 340498982#3 340498982#4 340498982#5 340498982#8 340498982#9 354528932 251884680 339201217#1 54048862#0 54048862#1 54048862#3 831694400 23013165#1 23013165#2 4611698#1 202156994#0 375901777 375901784 -534588621#1 534588621#0 751595930 156364553#1 606078065 313194359#1 82654054 819027709#0 110769140 60333311#2 -4612968#3 -344595607#0 285825378#0 -285825378#1 -285825378#2 285825377 313323170#1 313323170#2 -82658674#1 4612973#1 4612973#0 43164692"/>
    </person>
    <person id="ped32" type="ped_pedestrian" depart="68.73">
        <walk edges="566764345 173197451#6 173197451#4 173197451#3 -110464119 433126110 4613304#2 4613304#1 346213315 625745331#0 625745331#1 19002403#1 523630409 19002357#1 19002363#1 -19002363#2 55741054 -168942727#3 -168942727#2 -168942727#1 -168942727#0 370359204#0 222470309#1 222470309#0 47986664#2"/>
    </person>
    <person id="ped33" type="ped_pedestrian" depart="70.87">
        <walk edges="165832576 165832577 165832575 165832574#0 165832574#1 165832574#2 153698390#1 -750204886 -380240681 -176043794"/>
    </person>
    <person id="ped34" type="ped_pedestrian" depart="73.02">
        <walk edges="202817674#3 202817674#0 120675240#0 194962998 54048862#0 339201217#1 628330913 15971197#1 4610525#2 4610525#1 4610525#0 4610480 83517334#1 22972219#0 35578559 195397541#1 137630045 4610472#0 4610472#1 4610472#2 222328410 6228081 -541295974 153698390#1 -750204886 -380240681 176043794 176043806#0 176043806#1 -31112379#0 -31112379#1 -31112379#2 176043824#1"/>
    </person>
    <person id="ped35" type="ped_pedestrian" depart="75.17">
        <walk edges="150634670#2 339201224 31313667#3 4610476#3 4610476#2 -4610476#1 -22972219#1 83517334#1 4610480 -339201177#0 -339201177#1 -339201177#2 -339201177#3 -339201177#4 -339201177#5 -202156991#0 -202156991#1 -202156991#2 708628328 4610599 553649892 15971191#0 15971191#1 28016312#0 28016312#1 156364556#1 202157002#0 202157002#1 202157002#2 375901779#1 375901768#2 375901777 375901784 -534588621#1 -534588621#0 379797004#0 780327577"/>
    </person>
    <person id="ped36" type="ped_pedestrian" depart="77.32">
        <walk edges="6228081 -541295974 165832574#2 165832574#1 165832574#0 165832575 165832577 165832576 181587284#0 181587284#1 181587283 339201248 570058775#1 181587285 26733828#3 26733828#2 181587282 339201225 181587281 51236793#1 51236793#0 31959084 554949051#2 554949051#1 554949050 51234180#1 51234180#0 23852029#1 23852046#1 23852046#0 23809677 275008387#0 275008387#1 275008387#2 -168942727#0 -168942727#1 -168942727#2 -168942727#3 55741054 -19002363#2 -19002363#1 4613292#0 4613308#2 4613308#3 756306892 473149638#2 379904843#0 100405009#1 -47016368#0 -47016368#2 202162471"/>
    </person>
    <person id="ped37" type="ped_pedestrian" depart="79.47">
        <walk edges="384309031#1 344595602 384309028 344595605#1 313323170#1 285825377 -285825378#2 -285825378#1 285825378#0 -344595607#0 -4612968#3 60333311#2 110769140 819027709#0 82654054 313194359#1 606078065 159482050#0 379797004#1 379797004#0 751595928#0 -136571494#5 -136571494#4 260138645#1 260138645#0 757944649 628151236 628151234 628151235 260138639#1 260138639#0"/>
    </person>
    <person id="ped38" type="ped_pedestrian" depart="81.61">
        <walk edges="699041689 68647306#5 68647306#6 28251222#0 28251222#1 340498982#8 340498982#9 354528932 251884680 339201217#1 54048862#0 54048862#1 54048862#3 831694400 23013165#1 23013165#2 4611698#1 202156994#0 375901777 375901784 171826987#5 687804449 564139999#1 564139999#2 312392977 799055784 687623782#1 687623782#0 677882824 304987178#0 304987178#1 169195791#1 175499833#4 175499833#0 169230291#2 272811798 272757350#0 272757331#1 272757285 272757326 272757258#0 272757346#1 272757346#0 272757258#5 272757278 272757302 272757325#0 272757347#0 272757348#1 377634147#1 377634147#0 346229515#1 346229515#2 272780749#0 272780727 272780728 272795485 272795502#2 272795489#0"/>
    </person>
    <person id="ped39" type="ped_pedestrian" depart="83.76">
        <walk edges="175885747#0 175885747#1 175885747#3 175885747#4 22972195#2 -83517336#1 83517336#4 463829477#1 340498976#2 340498976#5 340498976#7 340498976#9 83517339 -4610480 -339201177#0 -339201177#1 -339201177#2 -339201177#3 -339201177#4 -339201177#5 -202156991#0 -202156991#1 -202156991#2 708628328 4610599 553649892 15971191#0 15971191#1 28016312#0 28016312#1 -156364570#3 561333203 -51912365#0 170517259"/>
    </person>
    <person id="ped40" type="ped_pedestrian" depart="85.91">
        <walk edges="335043659 335043662 82168044 25959559#2 274513558 274513545 335043657 274513551 274513549 274513571 38711947#1 38711947#0 465376255#2 465376239 175885747#4 175885747#3 175885747#1 175885743"/>
    </person>
    <person id="ped41" type="ped_pedestrian" depart="88.06">
        <walk edges="266572297#1 266572297#0 266572299#1 266572299#0 82658675#0 4612969#1 289966097 60333311#2 110769140 819027709#0 82654054 313194359#1 606078065 156364553#1 751595930 534588621#0 -534588621#1 375901784 375901777 202156994#0 4611698#1 23013165#2 23013165#1 831694400 61584187#1 4773023#0 4773023#1 134021300#4 134021300#3 33207312#0 33207312#1 15968749#0 15968752"/>
    </person>
    <person id="ped43" type="ped_pedestrian" depart="92.35">
        <walk edges="-340498976#9 -83517339 -4610480 -339201177#0 -339201177#1 -339201177#2 -339201177#3 -339201177#4 -339201177#5 -202156991#0 -202156991#1 -202156991#2"/>
    </person>
    <person id="ped44" type="ped_pedestrian" depart="94.50">
        <walk edges="-4588217#2 -4588217#1 -4588217#0 -24242882#0 -24242882#1 -24242882#2 -24242882#3 32508498 -32508516#0 32508516#1 -68647306#6 -28251222#0 28251222#1 340498982#8 340498982#9 354528932 251884680 339201217#1 54048862#0 54048862#1 54048862#3 831694400 23013165#1 23013165#2 4611698#1 202156994#0 375901777 375901784 375901774#2"/>
    </person>
    <person id="ped45" type="ped_pedestrian" depart="96.65">
        <walk edges="504412400 312392975 304987178#1 169195791#1 175499833#4 175499833#0 169230291#2 272811798 272757350#0 272757331#1 272757285 272757326 272757258#0 272757346#1 272757339#0 272757258#3 272757260 272757281 272757318#0"/>
    </person>
    <person id="ped46" type="ped_pedestrian" depart="98.79">
        <walk edges="-24992424#5 -24992424#2 840860363#1 313193879#1 82654054 313194359#1 606078065 156364553#1 751595930 534588621#0 -534588621#1 375901784 375901777 375901768#2 375901779#1 202157002#2 202157002#1 202157002#0 156364556#1 28016312#1 28016312#0 15971191#1 15971191#0 553649892 4610599 708628328 -202156991#2 -202156991#1 -202156991#0 -339201177#5 -339201177#4 -339201177#3 -339201177#2 -339201177#1 -339201177#0 4610480 83517334#1 -22972219#1 -4610476#1 -4610476#2 -4610476#3 -24243092#0 -24243092#1 -195397561#0 -195397561#1 -516398559 465376260#1 254523888#0 335704571 254523912#1 254523912#0 254523897 254523901#0 254523901#1 237520773#3 254339591#6"/>
    </person>
    <person id="ped48" type="ped_pedestrian" depart="103.09">
        <walk edges="832173066#1 832173068#4 832173068#5 832173068#6 832173068#7 832173068#8 625745331#1 19002403#1 523630409 19002357#1 19002363#1 19002363#2 19002363#3 -19002363#4 -19002363#6 23809678#4 23809678#1 11103418 -84960597#0 -84960597#1 46140376#1 59286500#3"/>
    </person>
    <person id="ped49" type="ped_pedestrian" depart="105.24">
        <walk edges="-132600840#1 -132600840#0 -4402037#1 111833186#2 456400037#1 456400035 327519012#5 327519010#2 327519010#1 327519010#0 292429063#0 292429063#1 -195105328#1 -195105328#0 -34848160#1 -34848160#0 -4610472#2 -4610472#1 -4610472#0 -137630045 23852035#1 137630046 235503139#1 235503139#0 -51167934#4 -51167934#3 -51167934#1 225400578#1 225400578#2 -454285423#4 310548395 4610355#2"/>
    </person>
    <person id="ped50" type="ped_pedestrian" depart="107.39">
        <walk edges="428486923 335009920 254339591#0 237520773#8 237526578#0 237526578#1 43185719 43185718#0 43185718#1 43185718#2 274513581#1 274513581#0 335043667 274513551 274513549 274513571 38711947#2 -24243092#1 -24243092#0 -4610476#3 -4610476#2 -4610476#1 -22972219#1 83517334#1 4610480 -339201177#0 -339201177#1 -339201177#2 -339201177#3 -339201177#4 -339201177#5 -202156991#0 -202156991#1 -202156991#2 708628328 4610599 553649892 15971191#0 15971191#1 28016312#0 28016312#1 156364556#1 202157002#0 202157002#1 202157002#2 375901779#1 375901768#2 375901777 375901784 -534588621#1 -534588621#0 379797004#0 379797004#1 379797004#2 379797004#3 379797004#4 312711508#2"/>
    </person>
    <person id="ped51" type="ped_pedestrian" depart="109.53">
        <walk edges="176043807#0 31112516 4403559#2 4403559#1 4403559#0 -195104956#0 25959593 82168025 82165083 82165084 465376247#1 465376247#0 107747047#3 378150067#0 378150067#1 24243052#2 607001337 465218214 465218213 378150066"/>
    </person>
    <person id="ped52" type="ped_pedestrian" depart="111.68">
        <walk edges="-4610362#1 -4610362#2 -4610362#4 -4610362#5 -4610362#6 -4610362#7 -4610362#8 30721662#1 -30721662#2 23809677 275008387#0 275008387#1 275008387#2 168942727#0 168942727#1 168942727#2 168942727#3 188914559 24990040 43270574#0 43270574#2 4790825#1 687966676#0 687966676#1 687966677#0 687966677#1 687966677#2 75228233 272757349#0 272757318#0 272757281 272757260 272757258#4 272757278 272757302 272757325#0 272757347#0 272757348#2 272757316#0 272757277 272757329 272757337#1 272757337#2 272757311 272757341#2 272757341#1 272757341#0"/>
    </person>
    <person id="ped53" type="ped_pedestrian" depart="113.83">
        <walk edges="272780760 377634140 272780736 346229515#4 346229515#3 346229515#2 346229515#1 377634147#0 377634147#1 272757348#1 272757347#0 272757325#0 272757302 272757278 272757258#5 272757346#0 272757346#1 272757258#0 272757326 272757285 272757331#1 272757350#0 272811798 169230291#2 175499833#0 175499833#4 169195791#1 304987178#1 304987178#0 677882824 687623782#0 687623782#1 799055784 312392977 564139999#2 564139999#1 687804449 171826987#5 375901784 375901777 202156994#0 4611698#1 23013165#2 23013165#1 831694400 61584187#1 61584187#2 61584187#3 61584187#4 54048863 15971197#0 15971197#1 751602168 803471190#0"/>
    </person>
    <person id="ped54" type="ped_pedestrian" depart="115.98">
        <walk edges="6227658#2 6227658#1 478432725 42103020#0 30720544#1 30720544#0 541295974 -6228081 222328410 465376254 4402228 190447766#1 190447767 465376255#2 465376239 175885747#4 175885745"/>
    </person>
    <person id="ped55" type="ped_pedestrian" depart="118.12">
        <walk edges="289966281 289966097 60333311#2 110769140 819027709#0 82654054 313194359#1 606078065 156364553#1 751595930 534588621#0 -534588621#1 375901784 375901777 202156994#0 4611698#1 23013165#2 23013165#1 831694400 61584187#1 61584187#2 61584187#3 61584187#4 54048863 15971197#0 15971197#1 751602168 169195795#0 169195795#1 169195795#4 169195795#5 169195795#6 169195795#7 169195795#9 340498988#0 188386313#0 188386313#2 153698380#0 111833186#0 111833186#1 111833186#2"/>
    </person>
    <person id="ped56" type="ped_pedestrian" depart="120.27">
        <walk edges="202156998#3 202156998#4 202156998#5 780334232#1 780334232#2 379797004#4 312711508#2 313194359#1 82654054 819027709#0 82649618 4611726 309479676 312357351 344594962 -628330901#1 -558867476 628330890 195407521 312019436#1 312138362#2 312138362#1 346206365 272795486 272795475 272795496#0 272795498#1 272795481 272795500#0 272795500#1 272795500#2 272795500#3 503071092 377634138 377634145#0"/>
    </person>
    <person id="ped57" type="ped_pedestrian" depart="122.42">
        <walk edges="346229515#2 346229515#1 377634147#0 377634147#1 272757348#1 272757347#0 272757325#0 272757302 272757278 272757258#4 272757260 272757281 272757318#0 272757349#0 75228233 687966677#2 687966677#1 687966677#0 687966676#1 687966676#0 4790825#1 43270574#2 43270574#0 24990040 188914559 168942727#3 168942727#2 168942727#1 168942727#0 275008387#2 275008387#1 275008387#0 23809677 23852046#0 23852046#1 23852029#1 51234180#0 51234180#1 554949050 554949051#1 554949051#2 31959084 51236793#0 51236793#1 137630046 23852035#1 -137630045 -4610472#0 -4610472#1 195397561#4 711640736#0 -711640736#2"/>
    </person>
    <person id="ped58" type="ped_pedestrian" depart="124.57">
        <walk edges="473149637 222470309#1 370359204#2 77348147 -156364570#0 -25294729#0 -25294729#1 113595955#0 113595955#1 113595955#2 171826985#1 171826986#0 171826986#1 171826986#3 72157174#1 534588621#1 534588621#0 751595930 156364553#1 606078065 313194359#1"/>
    </person>
    <person id="ped59" type="ped_pedestrian" depart="126.71">
        <walk edges="48164817#2 48164817#1 59331208 310177222#2 310177222#3 312127196#1 -315245296#1 -315245296#0 59332212#0 312176585#2"/>
    </person>
    <person id="ped60" type="ped_pedestrian" depart="128.86">
        <walk edges="-102408133#1 -4612973#1 -82658674#1 313323170#2 313323170#1 285825377 -285825378#2 -285825378#1 285825378#0 -344595607#0 -4612968#3 60333311#2 110769140 819027709#0 82654054 313194359#1 606078065 156364553#1 751595930 534588621#0 -534588621#1 375901784 375901777 375901768#2 375901779#1 202157002#2 202157002#1 202157002#0 156364556#1 46517262#6 46517262#5 46517262#4 46517262#3 46517262#2 46517262#1 46517262#0 170098545#2 170098545#1 170098545#0 -30721662#3 -30721662#2 30721662#1 -4610362#8 -4610362#7 -4610362#6 -4610362#5 -4610362#4 -4610362#2 -4610362#1 -4610362#0 437325047#0 474154190#0 474154190#1 225400609#10 225400609#9 225400609#8 113589279 225400609#5 225400609#6"/>
    </person>
    <person id="ped61" type="ped_pedestrian" depart="131.01">
        <walk edges="627355695#1 518508119#1 374734389#0 374734396#1 374734396#2 388702047#1 374734393#3 374734393#4 35269774#0 -6227658#1 -6227658#2 -6227658#3 437325054#0 465398530#1 465398530#2 -437325048#1 -560370523 -437325047#5 -437325047#3 -437325047#2 -437325047#0 4610362#0 4610362#1 4610362#2 4610362#4 4610362#5 4610362#6 4610362#7 4610362#8 30721662#1 -30721662#2 -30721662#3 170098545#0 170098545#1 170098545#2 46517262#0 46517262#1 46517262#2 46517262#3 46517262#4 46517262#5 46517262#6 490365295#1 557076771 557076775"/>
    </person>
    <person id="ped62" type="ped_pedestrian" depart="133.16">
        <walk edges="202157023#0 202157026#2 16873017#1 202157018#2 169067264#6 23013165#2 23013165#1 831694400 54048862#3 54048862#1 54048862#0 339201217#1 251884680 354528932 340498982#9 340498982#8 28251222#1 -28251222#0 -68647306#6 -68647306#5 -68647306#4 -68647306#3 -68647306#2 803471185 205728152#3 32508498 -24242882#3 -24242882#2 -24242882#1"/>
    </person>
    <person id="ped63" type="ped_pedestrian" depart="135.31">
        <walk edges="627355687 -4403559#0 -169660686#0 -705182550 -427637455 -153698390#1 165832574#2 165832574#1 165832574#0 165832575 165832577 165832576 181587284#0 181587284#1 181587283 339201248 570058775#1 181587285 26733828#3 26733828#2 181587282 339201225 181587281 51236793#1 51236793#0 31959084 554949051#2 554949051#1 554949050 51234180#1 51234180#0 23852029#1 23852046#1 23852046#0 30721662#2 -30721662#1 46140377#3 46140377#2 183415643 83517332#2 83517332#1 84960597#1 -84960597#0 11103418 23809678#1 566154990 780514920#0"/>
    </person>
    <person id="ped64" type="ped_pedestrian" depart="137.45">
        <walk edges="-326116286#2 4588217#3 4588217#2 4588217#1 4588217#0 -24242882#0 -24242882#1 -24242882#2 -24242882#3 32508498 -32508516#0 32508516#1 -68647306#6 -28251222#0 28251222#1 340498982#8 340498982#9 168937986#1 168937986#3 168937986#4 168937986#5 -339201177#0 -339201177#1 -339201177#2 -339201177#3 -339201177#4 -339201177#5 -202156991#0 -202156991#1 -202156991#2 708628328 4610599 553649892 15971191#0 15971191#1 23809670#3 -23809670#2 -23809670#1 -31959087#1 -31959087#0 -31959089 47986661#0 275008387#0 275008387#1"/>
    </person>
    <person id="ped65" type="ped_pedestrian" depart="139.60">