<?xml version="1.0" encoding="UTF-8"?>
<!-- generated on 2020-10-01 00:30:10.422229 by randomTrips.py UNKNOWN
  options: -n dhanbad.net.xml -r dhanbad.rou.xml -e 50 -l
-->
<routes xmlns:xsi="http://www.w3.org/2001/XMLSchema-instance" xsi:noNamespaceSchemaLocation="http://sumo.dlr.de/xsd/routes_file.xsd">
    <trip id="0" depart="0.00" from="118228013#2" to="-117695885#0"/>
    <trip id="1" depart="1.00" from="-528448950#1" to="-528391316#0"/>
    <trip id="2" depart="2.00" from="277424158" to="22828037#0"/>
    <trip id="3" depart="3.00" from="601921735#2" to="-117807492"/>
    <trip id="4" depart="4.00" from="-722745162" to="-117695885#0"/>
    <trip id="5" depart="5.00" from="-460378538#3" to="117695886#2"/>
    <trip id="6" depart="6.00" from="-117695871#1" to="-396098944#2"/>
    <trip id="7" depart="7.00" from="118228013#4" to="117807488#1"/>
    <trip id="8" depart="8.00" from="-460378538#5" to="117820759#5"/>
    <trip id="9" depart="9.00" from="528448979#1" to="-117695861#4"/>
    <trip id="10" depart="10.00" from="528448924#2" to="277397970#0"/>
    <trip id="11" depart="11.00" from="-601903165#3" to="-238849498#3"/>
    <trip id="12" depart="12.00" from="800471418" to="-601920117"/>
    <trip id="13" depart="13.00" from="-117807487#1" to="-117807497#1"/>
    <trip id="14" depart="14.00" from="545006731#1" to="118227991#1"/>
    <trip id="15" depart="15.00" from="528448979#0" to="460378537#1"/>
    <trip id="16" depart="16.00" from="117695899#2" to="825940028#1"/>
    <trip id="17" depart="17.00" from="-601931004#0" to="117807491#9"/>
    <trip id="18" depart="18.00" from="544904284" to="118228013#4"/>
    <trip id="19" depart="19.00" from="601903164#6" to="117817503#5"/>
    <trip id="20" depart="20.00" from="238849893#1" to="-117695889"/>
    <trip id="21" depart="21.00" from="-528358290#1" to="-544997238#3"/>
    <trip id="22" depart="22.00" from="-117695901#3" to="-528425046#4"/>
    <trip id="23" depart="23.00" from="-117807490#5" to="-544894960"/>
    <trip id="24" depart="24.00" from="118228013#1" to="-603242884#0"/>
    <trip id="25" depart="25.00" from="-601921732" to="-460378538#3"/>
    <trip id="26" depart="26.00" from="-528437030" to="722306287#1"/>
    <trip id="27" depart="27.00" from="118228013#4" to="118228013#1"/>
    <trip id="28" depart="28.00" from="-238849485#4" to="460378537#0"/>
    <trip id="29" depart="29.00" from="-22828037#1" to="-722306287#0"/>
    <trip id="30" depart="30.00" from="825940071" to="118228017#4"/>
    <trip id="31" depart="31.00" from="117807488#0" to="238849484"/>
    <trip id="32" depart="32.00" from="544997269#1" to="528437022#1"/>
    <trip id="33" depart="33.00" from="-528358290#1" to="-117695885#3"/>
    <trip id="34" depart="34.00" from="-544997281#1" to="-544878417#1"/>
    <trip id="35" depart="35.00" from="-396098955#0" to="800137596#0"/>
    <trip id="36" depart="36.00" from="601911114#0" to="-601903165#6"/>
    <trip id="37" depart="37.00" from="118228017#0" to="-800145473#3"/>
    <trip id="38" depart="38.00" from="603239881" to="117695865#4"/>
    <trip id="39" depart="39.00" from="-528437028#1" to="-528437026#2"/>
    <trip id="40" depart="40.00" from="117807490#4" to="-528448979#1"/>
    <trip id="41" depart="41.00" from="117807499#1" to="601931005#0"/>
    <trip id="42" depart="42.00" from="-603242884#0" to="-528391314"/>
    <trip id="43" depart="43.00" from="827060227" to="117695887#1"/>
    <trip id="44" depart="44.00" from="-117807487#1" to="-117695893#3"/>
    <trip id="45" depart="45.00" from="-117807494#6" to="118228017#0"/>
    <trip id="46" depart="46.00" from="528437023#0" to="-825940063"/>
    <trip id="47" depart="47.00" from="-117695887#1" to="-722306287#0"/>
    <trip id="48" depart="48.00" from="827053819" to="117695908#2"/>
    <trip id="49" depart="49.00" from="825940028#1" to="601903165#6"/>
</routes>
